* NGSPICE file created from sram_ifc.ext - technology: sky130A

* Black-box entry subcircuit for sky130_fd_sc_hd__fill_2 abstract view
.subckt sky130_fd_sc_hd__fill_2 VGND VPWR
.ends

* Black-box entry subcircuit for sky130_fd_sc_hd__diode_2 abstract view
.subckt sky130_fd_sc_hd__diode_2 DIODE VGND VPWR
.ends

* Black-box entry subcircuit for sky130_fd_sc_hd__decap_12 abstract view
.subckt sky130_fd_sc_hd__decap_12 VGND VPWR
.ends

* Black-box entry subcircuit for sky130_fd_sc_hd__decap_3 abstract view
.subckt sky130_fd_sc_hd__decap_3 VGND VPWR
.ends

* Black-box entry subcircuit for sky130_fd_sc_hd__decap_4 abstract view
.subckt sky130_fd_sc_hd__decap_4 VGND VPWR
.ends

* Black-box entry subcircuit for sky130_fd_sc_hd__decap_8 abstract view
.subckt sky130_fd_sc_hd__decap_8 VGND VPWR
.ends

* Black-box entry subcircuit for sky130_fd_sc_hd__fill_1 abstract view
.subckt sky130_fd_sc_hd__fill_1 VGND VPWR
.ends

* Black-box entry subcircuit for sky130_fd_sc_hd__buf_1 abstract view
.subckt sky130_fd_sc_hd__buf_1 A X VGND VPWR
.ends

* Black-box entry subcircuit for sky130_fd_sc_hd__tapvpwrvgnd_1 abstract view
.subckt sky130_fd_sc_hd__tapvpwrvgnd_1 VGND VPWR
.ends

* Black-box entry subcircuit for sky130_fd_sc_hd__decap_6 abstract view
.subckt sky130_fd_sc_hd__decap_6 VGND VPWR
.ends

* Black-box entry subcircuit for sky130_fd_sc_hd__a21o_4 abstract view
.subckt sky130_fd_sc_hd__a21o_4 A1 A2 B1 X VGND VPWR
.ends

* Black-box entry subcircuit for sky130_fd_sc_hd__dfxtp_4 abstract view
.subckt sky130_fd_sc_hd__dfxtp_4 D Q CLK VGND VPWR
.ends

* Black-box entry subcircuit for sky130_fd_sc_hd__clkbuf_1 abstract view
.subckt sky130_fd_sc_hd__clkbuf_1 A X VGND VPWR
.ends

* Black-box entry subcircuit for sky130_fd_sc_hd__and4_4 abstract view
.subckt sky130_fd_sc_hd__and4_4 A B C D X VGND VPWR
.ends

* Black-box entry subcircuit for sky130_fd_sc_hd__o21a_4 abstract view
.subckt sky130_fd_sc_hd__o21a_4 A1 A2 B1 X VGND VPWR
.ends

* Black-box entry subcircuit for sky130_fd_sc_hd__nor4_4 abstract view
.subckt sky130_fd_sc_hd__nor4_4 A B C D Y VGND VPWR
.ends

* Black-box entry subcircuit for sky130_fd_sc_hd__or4_4 abstract view
.subckt sky130_fd_sc_hd__or4_4 A B C D X VGND VPWR
.ends

* Black-box entry subcircuit for sky130_fd_sc_hd__o22a_4 abstract view
.subckt sky130_fd_sc_hd__o22a_4 A1 A2 B1 B2 X VGND VPWR
.ends

* Black-box entry subcircuit for sky130_fd_sc_hd__a211o_4 abstract view
.subckt sky130_fd_sc_hd__a211o_4 A1 A2 B1 C1 X VGND VPWR
.ends

* Black-box entry subcircuit for sky130_fd_sc_hd__a21bo_4 abstract view
.subckt sky130_fd_sc_hd__a21bo_4 A1 A2 B1_N X VGND VPWR
.ends

* Black-box entry subcircuit for sky130_fd_sc_hd__o21ai_4 abstract view
.subckt sky130_fd_sc_hd__o21ai_4 A1 A2 B1 Y VGND VPWR
.ends

* Black-box entry subcircuit for sky130_fd_sc_hd__a32o_4 abstract view
.subckt sky130_fd_sc_hd__a32o_4 A1 A2 A3 B1 B2 X VGND VPWR
.ends

* Black-box entry subcircuit for sky130_fd_sc_hd__or3_4 abstract view
.subckt sky130_fd_sc_hd__or3_4 A B C X VGND VPWR
.ends

* Black-box entry subcircuit for sky130_fd_sc_hd__inv_8 abstract view
.subckt sky130_fd_sc_hd__inv_8 A Y VGND VPWR
.ends

* Black-box entry subcircuit for sky130_fd_sc_hd__o41a_4 abstract view
.subckt sky130_fd_sc_hd__o41a_4 A1 A2 A3 A4 B1 X VGND VPWR
.ends

* Black-box entry subcircuit for sky130_fd_sc_hd__nor2_4 abstract view
.subckt sky130_fd_sc_hd__nor2_4 A B Y VGND VPWR
.ends

* Black-box entry subcircuit for sky130_fd_sc_hd__and2_4 abstract view
.subckt sky130_fd_sc_hd__and2_4 A B X VGND VPWR
.ends

* Black-box entry subcircuit for sky130_fd_sc_hd__a2111oi_4 abstract view
.subckt sky130_fd_sc_hd__a2111oi_4 A1 A2 B1 C1 D1 Y VGND VPWR
.ends

* Black-box entry subcircuit for sky130_fd_sc_hd__a21oi_4 abstract view
.subckt sky130_fd_sc_hd__a21oi_4 A1 A2 B1 Y VGND VPWR
.ends

* Black-box entry subcircuit for sky130_fd_sc_hd__a2bb2o_4 abstract view
.subckt sky130_fd_sc_hd__a2bb2o_4 A1_N A2_N B1 B2 X VGND VPWR
.ends

* Black-box entry subcircuit for sky130_fd_sc_hd__nor3_4 abstract view
.subckt sky130_fd_sc_hd__nor3_4 A B C Y VGND VPWR
.ends

* Black-box entry subcircuit for sky130_fd_sc_hd__or2_4 abstract view
.subckt sky130_fd_sc_hd__or2_4 A B X VGND VPWR
.ends

* Black-box entry subcircuit for sky130_fd_sc_hd__clkbuf_16 abstract view
.subckt sky130_fd_sc_hd__clkbuf_16 A X VGND VPWR
.ends

* Black-box entry subcircuit for sky130_fd_sc_hd__a22oi_4 abstract view
.subckt sky130_fd_sc_hd__a22oi_4 A1 A2 B1 B2 Y VGND VPWR
.ends

* Black-box entry subcircuit for sky130_fd_sc_hd__nand3_4 abstract view
.subckt sky130_fd_sc_hd__nand3_4 A B C Y VGND VPWR
.ends

* Black-box entry subcircuit for sky130_fd_sc_hd__and3_4 abstract view
.subckt sky130_fd_sc_hd__and3_4 A B C X VGND VPWR
.ends

* Black-box entry subcircuit for sky130_fd_sc_hd__a32oi_4 abstract view
.subckt sky130_fd_sc_hd__a32oi_4 A1 A2 A3 B1 B2 Y VGND VPWR
.ends

* Black-box entry subcircuit for sky130_fd_sc_hd__nand4_4 abstract view
.subckt sky130_fd_sc_hd__nand4_4 A B C D Y VGND VPWR
.ends

.subckt sram_ifc addr_r[0] addr_r[10] addr_r[11] addr_r[12] addr_r[13] addr_r[1] addr_r[2]
+ addr_r[3] addr_r[4] addr_r[5] addr_r[6] addr_r[7] addr_r[8] addr_r[9] addr_w[0]
+ addr_w[10] addr_w[11] addr_w[12] addr_w[13] addr_w[1] addr_w[2] addr_w[3] addr_w[4]
+ addr_w[5] addr_w[6] addr_w[7] addr_w[8] addr_w[9] baseaddr_r_sync[0] baseaddr_r_sync[1]
+ baseaddr_r_sync[2] baseaddr_r_sync[3] baseaddr_r_sync[4] baseaddr_r_sync[5] baseaddr_r_sync[6]
+ baseaddr_r_sync[7] baseaddr_r_sync[8] baseaddr_w_sync[0] baseaddr_w_sync[1] baseaddr_w_sync[2]
+ baseaddr_w_sync[3] baseaddr_w_sync[4] baseaddr_w_sync[5] baseaddr_w_sync[6] baseaddr_w_sync[7]
+ baseaddr_w_sync[8] clk conf[0] conf[1] conf[2] csb csb0_sync csb1_sync d_fabric_in[0]
+ d_fabric_in[10] d_fabric_in[11] d_fabric_in[12] d_fabric_in[13] d_fabric_in[14]
+ d_fabric_in[15] d_fabric_in[16] d_fabric_in[17] d_fabric_in[18] d_fabric_in[19]
+ d_fabric_in[1] d_fabric_in[20] d_fabric_in[21] d_fabric_in[22] d_fabric_in[23] d_fabric_in[24]
+ d_fabric_in[25] d_fabric_in[26] d_fabric_in[27] d_fabric_in[28] d_fabric_in[29]
+ d_fabric_in[2] d_fabric_in[30] d_fabric_in[31] d_fabric_in[3] d_fabric_in[4] d_fabric_in[5]
+ d_fabric_in[6] d_fabric_in[7] d_fabric_in[8] d_fabric_in[9] d_fabric_out[0] d_fabric_out[10]
+ d_fabric_out[11] d_fabric_out[12] d_fabric_out[13] d_fabric_out[14] d_fabric_out[15]
+ d_fabric_out[16] d_fabric_out[17] d_fabric_out[18] d_fabric_out[19] d_fabric_out[1]
+ d_fabric_out[20] d_fabric_out[21] d_fabric_out[22] d_fabric_out[23] d_fabric_out[24]
+ d_fabric_out[25] d_fabric_out[26] d_fabric_out[27] d_fabric_out[28] d_fabric_out[29]
+ d_fabric_out[2] d_fabric_out[30] d_fabric_out[31] d_fabric_out[3] d_fabric_out[4]
+ d_fabric_out[5] d_fabric_out[6] d_fabric_out[7] d_fabric_out[8] d_fabric_out[9]
+ d_sram_in[0] d_sram_in[10] d_sram_in[11] d_sram_in[12] d_sram_in[13] d_sram_in[14]
+ d_sram_in[15] d_sram_in[16] d_sram_in[17] d_sram_in[18] d_sram_in[19] d_sram_in[1]
+ d_sram_in[20] d_sram_in[21] d_sram_in[22] d_sram_in[23] d_sram_in[24] d_sram_in[25]
+ d_sram_in[26] d_sram_in[27] d_sram_in[28] d_sram_in[29] d_sram_in[2] d_sram_in[30]
+ d_sram_in[31] d_sram_in[3] d_sram_in[4] d_sram_in[5] d_sram_in[6] d_sram_in[7] d_sram_in[8]
+ d_sram_in[9] d_sram_out[0] d_sram_out[10] d_sram_out[11] d_sram_out[12] d_sram_out[13]
+ d_sram_out[14] d_sram_out[15] d_sram_out[16] d_sram_out[17] d_sram_out[18] d_sram_out[19]
+ d_sram_out[1] d_sram_out[20] d_sram_out[21] d_sram_out[22] d_sram_out[23] d_sram_out[24]
+ d_sram_out[25] d_sram_out[26] d_sram_out[27] d_sram_out[28] d_sram_out[29] d_sram_out[2]
+ d_sram_out[30] d_sram_out[31] d_sram_out[3] d_sram_out[4] d_sram_out[5] d_sram_out[6]
+ d_sram_out[7] d_sram_out[8] d_sram_out[9] out_reg reb w_mask[0] w_mask[10] w_mask[11]
+ w_mask[12] w_mask[13] w_mask[14] w_mask[15] w_mask[16] w_mask[17] w_mask[18] w_mask[19]
+ w_mask[1] w_mask[20] w_mask[21] w_mask[22] w_mask[23] w_mask[24] w_mask[25] w_mask[26]
+ w_mask[27] w_mask[28] w_mask[29] w_mask[2] w_mask[30] w_mask[31] w_mask[3] w_mask[4]
+ w_mask[5] w_mask[6] w_mask[7] w_mask[8] w_mask[9] web web0_sync VPWR VGND
XFILLER_100_149 VGND VPWR sky130_fd_sc_hd__fill_2
XFILLER_100_138 VGND VPWR sky130_fd_sc_hd__fill_2
XANTENNA__0703__A _0703_/A VGND VPWR sky130_fd_sc_hd__diode_2
XFILLER_123_208 VGND VPWR sky130_fd_sc_hd__decap_12
XFILLER_89_188 VGND VPWR sky130_fd_sc_hd__decap_3
XFILLER_133_98 VGND VPWR sky130_fd_sc_hd__decap_3
XFILLER_45_203 VGND VPWR sky130_fd_sc_hd__fill_2
XFILLER_45_269 VGND VPWR sky130_fd_sc_hd__decap_12
XFILLER_26_52 VGND VPWR sky130_fd_sc_hd__fill_2
XFILLER_60_206 VGND VPWR sky130_fd_sc_hd__decap_4
XFILLER_53_291 VGND VPWR sky130_fd_sc_hd__decap_8
XFILLER_42_51 VGND VPWR sky130_fd_sc_hd__decap_12
XFILLER_42_84 VGND VPWR sky130_fd_sc_hd__fill_2
XANTENNA__0613__A _0697_/A VGND VPWR sky130_fd_sc_hd__diode_2
XFILLER_107_282 VGND VPWR sky130_fd_sc_hd__fill_2
XANTENNA__0708__B1 _0707_/X VGND VPWR sky130_fd_sc_hd__diode_2
XANTENNA__1104__CLK _1197_/CLK VGND VPWR sky130_fd_sc_hd__diode_2
XFILLER_122_274 VGND VPWR sky130_fd_sc_hd__fill_1
XFILLER_122_263 VGND VPWR sky130_fd_sc_hd__decap_8
XFILLER_95_114 VGND VPWR sky130_fd_sc_hd__fill_2
XFILLER_122_296 VGND VPWR sky130_fd_sc_hd__decap_3
XFILLER_95_136 VGND VPWR sky130_fd_sc_hd__fill_2
XANTENNA__0765__A2_N _0529_/A VGND VPWR sky130_fd_sc_hd__diode_2
XFILLER_51_217 VGND VPWR sky130_fd_sc_hd__fill_2
X_0985_ _0985_/A _0985_/X VGND VPWR sky130_fd_sc_hd__buf_1
XANTENNA__0523__A _0570_/A VGND VPWR sky130_fd_sc_hd__diode_2
XFILLER_86_158 VGND VPWR sky130_fd_sc_hd__fill_2
XFILLER_27_269 VGND VPWR sky130_fd_sc_hd__decap_12
XFILLER_42_206 VGND VPWR sky130_fd_sc_hd__decap_8
XFILLER_63_39 VGND VPWR sky130_fd_sc_hd__decap_8
XPHY_905 VGND VPWR sky130_fd_sc_hd__tapvpwrvgnd_1
XFILLER_42_239 VGND VPWR sky130_fd_sc_hd__decap_12
XFILLER_50_250 VGND VPWR sky130_fd_sc_hd__decap_12
XFILLER_10_136 VGND VPWR sky130_fd_sc_hd__fill_2
XANTENNA__0650__A2 _0623_/X VGND VPWR sky130_fd_sc_hd__diode_2
XFILLER_12_32 VGND VPWR sky130_fd_sc_hd__decap_12
XANTENNA__1127__CLK _1150_/CLK VGND VPWR sky130_fd_sc_hd__diode_2
XFILLER_128_32 VGND VPWR sky130_fd_sc_hd__decap_12
XFILLER_104_274 VGND VPWR sky130_fd_sc_hd__fill_1
XFILLER_104_296 VGND VPWR sky130_fd_sc_hd__decap_3
XFILLER_77_136 VGND VPWR sky130_fd_sc_hd__fill_2
XFILLER_77_147 VGND VPWR sky130_fd_sc_hd__decap_12
XFILLER_92_106 VGND VPWR sky130_fd_sc_hd__decap_6
XFILLER_92_117 VGND VPWR sky130_fd_sc_hd__fill_2
XFILLER_92_128 VGND VPWR sky130_fd_sc_hd__fill_2
XANTENNA__0608__A _0542_/D VGND VPWR sky130_fd_sc_hd__diode_2
XFILLER_33_228 VGND VPWR sky130_fd_sc_hd__decap_3
X_0770_ _0762_/X _1089_/D _0769_/X d_fabric_out[6] VGND VPWR sky130_fd_sc_hd__a21o_4
XFILLER_5_184 VGND VPWR sky130_fd_sc_hd__decap_12
XFILLER_68_103 VGND VPWR sky130_fd_sc_hd__fill_2
XFILLER_78_80 VGND VPWR sky130_fd_sc_hd__decap_12
XFILLER_110_288 VGND VPWR sky130_fd_sc_hd__decap_8
XFILLER_83_139 VGND VPWR sky130_fd_sc_hd__decap_4
X_1184_ d_fabric_in[18] _1184_/Q _1223_/CLK VGND VPWR sky130_fd_sc_hd__dfxtp_4
XANTENNA__0518__A _0517_/X VGND VPWR sky130_fd_sc_hd__diode_2
XFILLER_91_150 VGND VPWR sky130_fd_sc_hd__fill_2
XFILLER_24_239 VGND VPWR sky130_fd_sc_hd__decap_12
XANTENNA__0632__A2 _0627_/Y VGND VPWR sky130_fd_sc_hd__diode_2
Xclkbuf_4_12_0_clk clkbuf_3_6_0_clk/X _1162_/CLK VGND VPWR sky130_fd_sc_hd__clkbuf_1
X_0968_ _0968_/A _0968_/X VGND VPWR sky130_fd_sc_hd__buf_1
X_0899_ _0899_/A _0899_/B _0903_/C _1177_/Q _0899_/X VGND VPWR sky130_fd_sc_hd__and4_4
XANTENNA__0700__B _0700_/B VGND VPWR sky130_fd_sc_hd__diode_2
XFILLER_58_39 VGND VPWR sky130_fd_sc_hd__fill_2
XFILLER_101_233 VGND VPWR sky130_fd_sc_hd__fill_2
XFILLER_114_56 VGND VPWR sky130_fd_sc_hd__decap_12
XFILLER_101_277 VGND VPWR sky130_fd_sc_hd__decap_12
XFILLER_74_27 VGND VPWR sky130_fd_sc_hd__decap_4
XFILLER_130_44 VGND VPWR sky130_fd_sc_hd__decap_12
XFILLER_15_228 VGND VPWR sky130_fd_sc_hd__decap_12
XANTENNA__0871__A2 _0833_/X VGND VPWR sky130_fd_sc_hd__diode_2
XPHY_702 VGND VPWR sky130_fd_sc_hd__tapvpwrvgnd_1
XPHY_735 VGND VPWR sky130_fd_sc_hd__tapvpwrvgnd_1
XPHY_724 VGND VPWR sky130_fd_sc_hd__tapvpwrvgnd_1
XFILLER_90_15 VGND VPWR sky130_fd_sc_hd__decap_12
XPHY_713 VGND VPWR sky130_fd_sc_hd__tapvpwrvgnd_1
XPHY_768 VGND VPWR sky130_fd_sc_hd__tapvpwrvgnd_1
XPHY_757 VGND VPWR sky130_fd_sc_hd__tapvpwrvgnd_1
XPHY_746 VGND VPWR sky130_fd_sc_hd__tapvpwrvgnd_1
XFILLER_135_3 VGND VPWR sky130_fd_sc_hd__decap_12
XPHY_779 VGND VPWR sky130_fd_sc_hd__tapvpwrvgnd_1
XANTENNA__0623__A2 _0620_/X VGND VPWR sky130_fd_sc_hd__diode_2
XFILLER_23_97 VGND VPWR sky130_fd_sc_hd__fill_2
XFILLER_99_35 VGND VPWR sky130_fd_sc_hd__decap_12
XFILLER_2_132 VGND VPWR sky130_fd_sc_hd__decap_12
XFILLER_2_154 VGND VPWR sky130_fd_sc_hd__decap_12
XANTENNA__1144__D d_sram_out[29] VGND VPWR sky130_fd_sc_hd__diode_2
XANTENNA__0847__C1 _0846_/X VGND VPWR sky130_fd_sc_hd__diode_2
XANTENNA__0862__A2 _0839_/X VGND VPWR sky130_fd_sc_hd__diode_2
XFILLER_64_60 VGND VPWR sky130_fd_sc_hd__fill_2
XFILLER_73_194 VGND VPWR sky130_fd_sc_hd__fill_2
XFILLER_64_93 VGND VPWR sky130_fd_sc_hd__fill_1
XFILLER_119_119 VGND VPWR sky130_fd_sc_hd__decap_3
X_0822_ d_sram_in[0] _0880_/A VGND VPWR sky130_fd_sc_hd__buf_1
X_0753_ _0642_/D _0496_/A _0709_/X _0753_/X VGND VPWR sky130_fd_sc_hd__o21a_4
XFILLER_127_196 VGND VPWR sky130_fd_sc_hd__decap_12
XANTENNA__0801__A _0776_/A VGND VPWR sky130_fd_sc_hd__diode_2
Xclkbuf_3_1_0_clk clkbuf_3_1_0_clk/A clkbuf_4_3_0_clk/A VGND VPWR sky130_fd_sc_hd__clkbuf_1
XFILLER_50_3 VGND VPWR sky130_fd_sc_hd__decap_12
X_0684_ _0675_/X _0684_/B _0684_/C _0683_/X _0684_/Y VGND VPWR sky130_fd_sc_hd__nor4_4
XFILLER_96_253 VGND VPWR sky130_fd_sc_hd__fill_2
XFILLER_96_297 VGND VPWR sky130_fd_sc_hd__fill_2
XFILLER_49_191 VGND VPWR sky130_fd_sc_hd__fill_2
X_1167_ d_fabric_in[1] _0827_/A _1188_/CLK VGND VPWR sky130_fd_sc_hd__dfxtp_4
X_1098_ _1098_/D _1098_/Q _1126_/CLK VGND VPWR sky130_fd_sc_hd__dfxtp_4
XANTENNA__0853__A2 _0946_/A VGND VPWR sky130_fd_sc_hd__diode_2
XFILLER_118_141 VGND VPWR sky130_fd_sc_hd__decap_12
XANTENNA__0711__A _0659_/A VGND VPWR sky130_fd_sc_hd__diode_2
XANTENNA__1030__A2 _1025_/X VGND VPWR sky130_fd_sc_hd__diode_2
XFILLER_85_15 VGND VPWR sky130_fd_sc_hd__decap_12
XFILLER_85_59 VGND VPWR sky130_fd_sc_hd__fill_2
XFILLER_18_97 VGND VPWR sky130_fd_sc_hd__decap_3
XPHY_510 VGND VPWR sky130_fd_sc_hd__tapvpwrvgnd_1
XFILLER_34_52 VGND VPWR sky130_fd_sc_hd__fill_2
XPHY_521 VGND VPWR sky130_fd_sc_hd__tapvpwrvgnd_1
XPHY_532 VGND VPWR sky130_fd_sc_hd__tapvpwrvgnd_1
XPHY_543 VGND VPWR sky130_fd_sc_hd__tapvpwrvgnd_1
XFILLER_11_220 VGND VPWR sky130_fd_sc_hd__decap_12
XFILLER_34_96 VGND VPWR sky130_fd_sc_hd__decap_4
XPHY_554 VGND VPWR sky130_fd_sc_hd__tapvpwrvgnd_1
XPHY_565 VGND VPWR sky130_fd_sc_hd__tapvpwrvgnd_1
XPHY_576 VGND VPWR sky130_fd_sc_hd__tapvpwrvgnd_1
XPHY_587 VGND VPWR sky130_fd_sc_hd__tapvpwrvgnd_1
XPHY_598 VGND VPWR sky130_fd_sc_hd__tapvpwrvgnd_1
XFILLER_7_257 VGND VPWR sky130_fd_sc_hd__decap_12
XFILLER_109_163 VGND VPWR sky130_fd_sc_hd__fill_2
XANTENNA__1139__D d_sram_out[24] VGND VPWR sky130_fd_sc_hd__diode_2
XFILLER_50_84 VGND VPWR sky130_fd_sc_hd__fill_2
XFILLER_124_166 VGND VPWR sky130_fd_sc_hd__decap_12
XANTENNA__0978__D _0991_/D VGND VPWR sky130_fd_sc_hd__diode_2
XANTENNA__0780__A1 _0779_/X VGND VPWR sky130_fd_sc_hd__diode_2
XANTENNA__0780__B2 _1091_/Q VGND VPWR sky130_fd_sc_hd__diode_2
XFILLER_59_71 VGND VPWR sky130_fd_sc_hd__fill_2
XANTENNA__0994__C _0953_/Y VGND VPWR sky130_fd_sc_hd__diode_2
XFILLER_78_297 VGND VPWR sky130_fd_sc_hd__fill_2
XFILLER_93_234 VGND VPWR sky130_fd_sc_hd__decap_4
XFILLER_93_245 VGND VPWR sky130_fd_sc_hd__decap_4
X_1021_ _0973_/A _1021_/B _1017_/C _1017_/D _1022_/A VGND VPWR sky130_fd_sc_hd__or4_4
XFILLER_46_150 VGND VPWR sky130_fd_sc_hd__decap_3
XFILLER_75_70 VGND VPWR sky130_fd_sc_hd__fill_1
XFILLER_75_81 VGND VPWR sky130_fd_sc_hd__decap_12
XFILLER_61_153 VGND VPWR sky130_fd_sc_hd__fill_2
XFILLER_98_3 VGND VPWR sky130_fd_sc_hd__decap_12
XFILLER_61_197 VGND VPWR sky130_fd_sc_hd__decap_4
XFILLER_91_80 VGND VPWR sky130_fd_sc_hd__decap_12
XANTENNA__0930__B1_N _0873_/X VGND VPWR sky130_fd_sc_hd__diode_2
X_0805_ _0799_/X _1102_/Q _0742_/D _0801_/X d_fabric_out[19] VGND VPWR sky130_fd_sc_hd__o22a_4
XANTENNA__1012__A2 _0983_/X VGND VPWR sky130_fd_sc_hd__diode_2
XANTENNA__0531__A _0580_/C VGND VPWR sky130_fd_sc_hd__diode_2
X_0736_ _0668_/X _0737_/A _0501_/X _0735_/X _0736_/X VGND VPWR sky130_fd_sc_hd__a211o_4
XFILLER_115_166 VGND VPWR sky130_fd_sc_hd__fill_2
XFILLER_130_125 VGND VPWR sky130_fd_sc_hd__fill_1
XFILLER_115_188 VGND VPWR sky130_fd_sc_hd__decap_12
X_0667_ _0493_/X _0750_/A VGND VPWR sky130_fd_sc_hd__buf_1
XANTENNA__1065__C _0952_/C VGND VPWR sky130_fd_sc_hd__diode_2
X_0598_ _0569_/X _0701_/B VGND VPWR sky130_fd_sc_hd__buf_1
XFILLER_29_106 VGND VPWR sky130_fd_sc_hd__fill_2
XFILLER_29_139 VGND VPWR sky130_fd_sc_hd__decap_4
X_1219_ addr_r[7] baseaddr_r_sync[7] _1128_/CLK VGND VPWR sky130_fd_sc_hd__dfxtp_4
XANTENNA__1079__A2 _1040_/X VGND VPWR sky130_fd_sc_hd__diode_2
XFILLER_37_172 VGND VPWR sky130_fd_sc_hd__decap_8
XANTENNA__0826__A2 _0834_/A VGND VPWR sky130_fd_sc_hd__diode_2
XFILLER_52_175 VGND VPWR sky130_fd_sc_hd__decap_3
XFILLER_71_39 VGND VPWR sky130_fd_sc_hd__decap_12
XFILLER_20_32 VGND VPWR sky130_fd_sc_hd__decap_12
XFILLER_4_227 VGND VPWR sky130_fd_sc_hd__decap_12
XFILLER_136_32 VGND VPWR sky130_fd_sc_hd__decap_12
XFILLER_121_147 VGND VPWR sky130_fd_sc_hd__decap_12
XFILLER_75_223 VGND VPWR sky130_fd_sc_hd__fill_2
XFILLER_75_245 VGND VPWR sky130_fd_sc_hd__decap_3
XFILLER_75_278 VGND VPWR sky130_fd_sc_hd__fill_2
XFILLER_28_172 VGND VPWR sky130_fd_sc_hd__fill_2
XFILLER_75_289 VGND VPWR sky130_fd_sc_hd__fill_2
XANTENNA__0817__A2 _1110_/Q VGND VPWR sky130_fd_sc_hd__diode_2
XFILLER_45_62 VGND VPWR sky130_fd_sc_hd__fill_1
XFILLER_43_153 VGND VPWR sky130_fd_sc_hd__fill_2
XFILLER_43_175 VGND VPWR sky130_fd_sc_hd__fill_2
XANTENNA__0616__A _0510_/A VGND VPWR sky130_fd_sc_hd__diode_2
XPHY_351 VGND VPWR sky130_fd_sc_hd__tapvpwrvgnd_1
XPHY_340 VGND VPWR sky130_fd_sc_hd__tapvpwrvgnd_1
XPHY_395 VGND VPWR sky130_fd_sc_hd__tapvpwrvgnd_1
XPHY_384 VGND VPWR sky130_fd_sc_hd__tapvpwrvgnd_1
XPHY_373 VGND VPWR sky130_fd_sc_hd__tapvpwrvgnd_1
XPHY_362 VGND VPWR sky130_fd_sc_hd__tapvpwrvgnd_1
XFILLER_61_83 VGND VPWR sky130_fd_sc_hd__fill_2
XFILLER_129_269 VGND VPWR sky130_fd_sc_hd__decap_12
XFILLER_6_56 VGND VPWR sky130_fd_sc_hd__decap_12
X_0521_ _0521_/A _0740_/B _0738_/C _1127_/Q _0546_/B VGND VPWR sky130_fd_sc_hd__and4_4
XANTENNA__0753__A1 _0642_/D VGND VPWR sky130_fd_sc_hd__diode_2
XFILLER_3_293 VGND VPWR sky130_fd_sc_hd__decap_6
XFILLER_13_3 VGND VPWR sky130_fd_sc_hd__decap_12
X_1004_ _1031_/D _1017_/D VGND VPWR sky130_fd_sc_hd__buf_1
XANTENNA__0526__A _0525_/X VGND VPWR sky130_fd_sc_hd__diode_2
XFILLER_34_197 VGND VPWR sky130_fd_sc_hd__decap_12
XFILLER_135_217 VGND VPWR sky130_fd_sc_hd__fill_2
XANTENNA__1160__CLK _1223_/CLK VGND VPWR sky130_fd_sc_hd__diode_2
XANTENNA__0899__C _0903_/C VGND VPWR sky130_fd_sc_hd__diode_2
X_0719_ _0651_/Y _0719_/X VGND VPWR sky130_fd_sc_hd__buf_1
XFILLER_106_68 VGND VPWR sky130_fd_sc_hd__decap_12
XFILLER_57_201 VGND VPWR sky130_fd_sc_hd__decap_3
XFILLER_57_234 VGND VPWR sky130_fd_sc_hd__fill_2
XFILLER_57_245 VGND VPWR sky130_fd_sc_hd__fill_2
XFILLER_122_56 VGND VPWR sky130_fd_sc_hd__decap_12
XFILLER_72_226 VGND VPWR sky130_fd_sc_hd__fill_2
XFILLER_25_142 VGND VPWR sky130_fd_sc_hd__decap_3
XFILLER_82_27 VGND VPWR sky130_fd_sc_hd__decap_4
XFILLER_25_164 VGND VPWR sky130_fd_sc_hd__fill_2
XFILLER_15_87 VGND VPWR sky130_fd_sc_hd__decap_12
XFILLER_40_167 VGND VPWR sky130_fd_sc_hd__fill_2
XFILLER_31_86 VGND VPWR sky130_fd_sc_hd__fill_2
XANTENNA__0602__C _0702_/C VGND VPWR sky130_fd_sc_hd__diode_2
XFILLER_134_272 VGND VPWR sky130_fd_sc_hd__decap_3
XANTENNA__0735__A1 _0521_/A VGND VPWR sky130_fd_sc_hd__diode_2
XANTENNA__0735__B2 _0655_/B VGND VPWR sky130_fd_sc_hd__diode_2
XANTENNA__1152__D _1160_/Q VGND VPWR sky130_fd_sc_hd__diode_2
XFILLER_16_120 VGND VPWR sky130_fd_sc_hd__decap_3
XANTENNA__0991__D _0991_/D VGND VPWR sky130_fd_sc_hd__diode_2
XFILLER_71_292 VGND VPWR sky130_fd_sc_hd__decap_6
XANTENNA__0671__B1 _0681_/D VGND VPWR sky130_fd_sc_hd__diode_2
XFILLER_72_93 VGND VPWR sky130_fd_sc_hd__decap_6
XPHY_170 VGND VPWR sky130_fd_sc_hd__decap_3
XANTENNA__1183__CLK _1162_/CLK VGND VPWR sky130_fd_sc_hd__diode_2
XPHY_181 VGND VPWR sky130_fd_sc_hd__decap_3
XPHY_192 VGND VPWR sky130_fd_sc_hd__decap_3
XFILLER_132_209 VGND VPWR sky130_fd_sc_hd__decap_4
XFILLER_98_101 VGND VPWR sky130_fd_sc_hd__fill_1
XFILLER_98_145 VGND VPWR sky130_fd_sc_hd__fill_2
XFILLER_98_134 VGND VPWR sky130_fd_sc_hd__fill_2
X_0504_ _0504_/A _0533_/A VGND VPWR sky130_fd_sc_hd__buf_1
XFILLER_100_117 VGND VPWR sky130_fd_sc_hd__decap_12
XFILLER_39_212 VGND VPWR sky130_fd_sc_hd__decap_12
XFILLER_39_245 VGND VPWR sky130_fd_sc_hd__decap_12
XFILLER_54_226 VGND VPWR sky130_fd_sc_hd__fill_2
XANTENNA__0703__B _0703_/B VGND VPWR sky130_fd_sc_hd__diode_2
XFILLER_131_220 VGND VPWR sky130_fd_sc_hd__decap_12
XFILLER_89_123 VGND VPWR sky130_fd_sc_hd__decap_3
XFILLER_89_145 VGND VPWR sky130_fd_sc_hd__fill_2
XFILLER_93_15 VGND VPWR sky130_fd_sc_hd__decap_12
XFILLER_93_59 VGND VPWR sky130_fd_sc_hd__fill_2
XFILLER_13_123 VGND VPWR sky130_fd_sc_hd__fill_1
XFILLER_9_127 VGND VPWR sky130_fd_sc_hd__fill_1
XFILLER_9_149 VGND VPWR sky130_fd_sc_hd__decap_12
XFILLER_42_30 VGND VPWR sky130_fd_sc_hd__fill_1
XFILLER_42_41 VGND VPWR sky130_fd_sc_hd__decap_4
XANTENNA__0613__B _0701_/B VGND VPWR sky130_fd_sc_hd__diode_2
XANTENNA__0708__A1 _0705_/X VGND VPWR sky130_fd_sc_hd__diode_2
XANTENNA__1147__D _1155_/Q VGND VPWR sky130_fd_sc_hd__diode_2
XFILLER_67_60 VGND VPWR sky130_fd_sc_hd__fill_1
XFILLER_36_215 VGND VPWR sky130_fd_sc_hd__decap_12
XANTENNA__0892__B1 _0891_/X VGND VPWR sky130_fd_sc_hd__diode_2
XFILLER_80_3 VGND VPWR sky130_fd_sc_hd__fill_2
X_0984_ _1044_/A _0985_/A VGND VPWR sky130_fd_sc_hd__buf_1
XFILLER_105_209 VGND VPWR sky130_fd_sc_hd__fill_2
XPHY_906 VGND VPWR sky130_fd_sc_hd__tapvpwrvgnd_1
XFILLER_35_281 VGND VPWR sky130_fd_sc_hd__decap_12
XANTENNA__0714__A _0713_/X VGND VPWR sky130_fd_sc_hd__diode_2
XFILLER_50_262 VGND VPWR sky130_fd_sc_hd__decap_12
XFILLER_12_44 VGND VPWR sky130_fd_sc_hd__decap_12
XFILLER_12_22 VGND VPWR sky130_fd_sc_hd__decap_8
XANTENNA__0938__A1 _1196_/Q VGND VPWR sky130_fd_sc_hd__diode_2
XFILLER_128_44 VGND VPWR sky130_fd_sc_hd__decap_12
XANTENNA__1060__B1 _1057_/X VGND VPWR sky130_fd_sc_hd__diode_2
XFILLER_12_88 VGND VPWR sky130_fd_sc_hd__decap_4
XFILLER_88_15 VGND VPWR sky130_fd_sc_hd__decap_12
XFILLER_18_215 VGND VPWR sky130_fd_sc_hd__decap_12
XFILLER_37_85 VGND VPWR sky130_fd_sc_hd__fill_2
XANTENNA__0608__B _0524_/X VGND VPWR sky130_fd_sc_hd__diode_2
XFILLER_37_96 VGND VPWR sky130_fd_sc_hd__fill_2
XANTENNA__0874__B1 _0873_/X VGND VPWR sky130_fd_sc_hd__diode_2
XFILLER_53_62 VGND VPWR sky130_fd_sc_hd__fill_2
XANTENNA__0624__A _0580_/B VGND VPWR sky130_fd_sc_hd__diode_2
XANTENNA__0929__A1 _1188_/Q VGND VPWR sky130_fd_sc_hd__diode_2
XANTENNA__1051__B1 _1049_/X VGND VPWR sky130_fd_sc_hd__diode_2
XANTENNA__1221__CLK _1221_/CLK VGND VPWR sky130_fd_sc_hd__diode_2
XFILLER_5_196 VGND VPWR sky130_fd_sc_hd__decap_12
X_1183_ d_fabric_in[17] _1183_/Q _1162_/CLK VGND VPWR sky130_fd_sc_hd__dfxtp_4
XFILLER_94_80 VGND VPWR sky130_fd_sc_hd__decap_12
XANTENNA__0865__B1 _0844_/X VGND VPWR sky130_fd_sc_hd__diode_2
XFILLER_17_281 VGND VPWR sky130_fd_sc_hd__decap_12
XFILLER_91_184 VGND VPWR sky130_fd_sc_hd__fill_2
XFILLER_32_251 VGND VPWR sky130_fd_sc_hd__decap_12
XANTENNA__0534__A _0533_/X VGND VPWR sky130_fd_sc_hd__diode_2
X_0967_ _0945_/Y _0966_/Y _0946_/X _0960_/X w_mask[1] VGND VPWR sky130_fd_sc_hd__a211o_4
X_0898_ _0895_/D _0877_/X _0897_/Y d_sram_in[10] VGND VPWR sky130_fd_sc_hd__a21bo_4
XANTENNA__0700__C _0717_/B VGND VPWR sky130_fd_sc_hd__diode_2
XFILLER_59_137 VGND VPWR sky130_fd_sc_hd__decap_3
XFILLER_101_245 VGND VPWR sky130_fd_sc_hd__fill_2
XFILLER_101_289 VGND VPWR sky130_fd_sc_hd__decap_8
XFILLER_114_68 VGND VPWR sky130_fd_sc_hd__decap_12
XANTENNA__0709__A _0501_/X VGND VPWR sky130_fd_sc_hd__diode_2
XANTENNA__0856__B1 _0855_/X VGND VPWR sky130_fd_sc_hd__diode_2
XFILLER_82_173 VGND VPWR sky130_fd_sc_hd__fill_2
XFILLER_130_56 VGND VPWR sky130_fd_sc_hd__decap_12
XPHY_736 VGND VPWR sky130_fd_sc_hd__tapvpwrvgnd_1
XPHY_725 VGND VPWR sky130_fd_sc_hd__tapvpwrvgnd_1
XFILLER_90_27 VGND VPWR sky130_fd_sc_hd__decap_4
XPHY_703 VGND VPWR sky130_fd_sc_hd__tapvpwrvgnd_1
XPHY_714 VGND VPWR sky130_fd_sc_hd__tapvpwrvgnd_1
XPHY_769 VGND VPWR sky130_fd_sc_hd__tapvpwrvgnd_1
XPHY_758 VGND VPWR sky130_fd_sc_hd__tapvpwrvgnd_1
XPHY_747 VGND VPWR sky130_fd_sc_hd__tapvpwrvgnd_1
XFILLER_128_3 VGND VPWR sky130_fd_sc_hd__decap_12
XFILLER_99_47 VGND VPWR sky130_fd_sc_hd__decap_12
XANTENNA__1033__B1 _1029_/Y VGND VPWR sky130_fd_sc_hd__diode_2
XFILLER_2_144 VGND VPWR sky130_fd_sc_hd__decap_8
XFILLER_2_166 VGND VPWR sky130_fd_sc_hd__decap_12
XFILLER_48_51 VGND VPWR sky130_fd_sc_hd__decap_3
XFILLER_48_84 VGND VPWR sky130_fd_sc_hd__fill_2
XFILLER_65_118 VGND VPWR sky130_fd_sc_hd__fill_2
XANTENNA__0619__A _0619_/A VGND VPWR sky130_fd_sc_hd__diode_2
XANTENNA__0847__B1 _0844_/X VGND VPWR sky130_fd_sc_hd__diode_2
XANTENNA__1160__D _1223_/Q VGND VPWR sky130_fd_sc_hd__diode_2
XFILLER_73_173 VGND VPWR sky130_fd_sc_hd__decap_3
XFILLER_73_184 VGND VPWR sky130_fd_sc_hd__fill_2
XFILLER_64_83 VGND VPWR sky130_fd_sc_hd__decap_3
XFILLER_14_251 VGND VPWR sky130_fd_sc_hd__decap_12
X_0821_ _0662_/X _1114_/Q _0616_/C _0779_/X d_fabric_out[31] VGND VPWR sky130_fd_sc_hd__o22a_4
XFILLER_80_93 VGND VPWR sky130_fd_sc_hd__decap_12
X_0752_ _0532_/X _0751_/X _0719_/X _0752_/X VGND VPWR sky130_fd_sc_hd__o21a_4
X_0683_ _0509_/B _0679_/X _0681_/X _0682_/X _0683_/X VGND VPWR sky130_fd_sc_hd__or4_4
XFILLER_43_3 VGND VPWR sky130_fd_sc_hd__fill_2
XFILLER_96_210 VGND VPWR sky130_fd_sc_hd__fill_2
XFILLER_96_232 VGND VPWR sky130_fd_sc_hd__fill_2
XFILLER_56_107 VGND VPWR sky130_fd_sc_hd__fill_2
XFILLER_56_118 VGND VPWR sky130_fd_sc_hd__decap_4
XANTENNA__0529__A _0529_/A VGND VPWR sky130_fd_sc_hd__diode_2
XANTENNA__1117__CLK _1162_/CLK VGND VPWR sky130_fd_sc_hd__diode_2
X_1166_ d_fabric_in[0] d_sram_in[0] _1188_/CLK VGND VPWR sky130_fd_sc_hd__dfxtp_4
XFILLER_64_184 VGND VPWR sky130_fd_sc_hd__fill_2
XFILLER_64_195 VGND VPWR sky130_fd_sc_hd__fill_2
X_1097_ _0795_/X _1097_/Q _1089_/CLK VGND VPWR sky130_fd_sc_hd__dfxtp_4
XFILLER_60_19 VGND VPWR sky130_fd_sc_hd__decap_6
XFILLER_20_276 VGND VPWR sky130_fd_sc_hd__decap_12
XFILLER_133_123 VGND VPWR sky130_fd_sc_hd__decap_12
XFILLER_87_254 VGND VPWR sky130_fd_sc_hd__fill_2
XFILLER_47_107 VGND VPWR sky130_fd_sc_hd__fill_2
XFILLER_47_118 VGND VPWR sky130_fd_sc_hd__fill_2
XFILLER_85_27 VGND VPWR sky130_fd_sc_hd__decap_12
XFILLER_87_265 VGND VPWR sky130_fd_sc_hd__fill_2
XFILLER_18_32 VGND VPWR sky130_fd_sc_hd__decap_12
XPHY_500 VGND VPWR sky130_fd_sc_hd__tapvpwrvgnd_1
XFILLER_70_143 VGND VPWR sky130_fd_sc_hd__decap_8
XFILLER_70_154 VGND VPWR sky130_fd_sc_hd__decap_4
XPHY_511 VGND VPWR sky130_fd_sc_hd__tapvpwrvgnd_1
XPHY_522 VGND VPWR sky130_fd_sc_hd__tapvpwrvgnd_1
XPHY_533 VGND VPWR sky130_fd_sc_hd__tapvpwrvgnd_1
XPHY_544 VGND VPWR sky130_fd_sc_hd__tapvpwrvgnd_1
XFILLER_70_165 VGND VPWR sky130_fd_sc_hd__fill_2
XFILLER_11_232 VGND VPWR sky130_fd_sc_hd__decap_12
XPHY_555 VGND VPWR sky130_fd_sc_hd__tapvpwrvgnd_1
XPHY_566 VGND VPWR sky130_fd_sc_hd__tapvpwrvgnd_1
XPHY_577 VGND VPWR sky130_fd_sc_hd__tapvpwrvgnd_1
XPHY_588 VGND VPWR sky130_fd_sc_hd__tapvpwrvgnd_1
XPHY_599 VGND VPWR sky130_fd_sc_hd__tapvpwrvgnd_1
XFILLER_109_142 VGND VPWR sky130_fd_sc_hd__decap_12
XFILLER_7_269 VGND VPWR sky130_fd_sc_hd__decap_12
XFILLER_50_52 VGND VPWR sky130_fd_sc_hd__fill_2
XFILLER_124_178 VGND VPWR sky130_fd_sc_hd__decap_12
XANTENNA__0780__A2 _0778_/X VGND VPWR sky130_fd_sc_hd__diode_2
XFILLER_78_210 VGND VPWR sky130_fd_sc_hd__fill_2
XANTENNA__1155__D _1226_/Q VGND VPWR sky130_fd_sc_hd__diode_2
XFILLER_78_243 VGND VPWR sky130_fd_sc_hd__fill_2
XANTENNA__0994__D _0972_/A VGND VPWR sky130_fd_sc_hd__diode_2
Xclkbuf_4_11_0_clk clkbuf_3_5_0_clk/X _1226_/CLK VGND VPWR sky130_fd_sc_hd__clkbuf_1
X_1020_ _0998_/X _1018_/X _1019_/X w_mask[10] VGND VPWR sky130_fd_sc_hd__o21ai_4
XFILLER_46_162 VGND VPWR sky130_fd_sc_hd__fill_2
XFILLER_75_93 VGND VPWR sky130_fd_sc_hd__decap_8
XFILLER_61_132 VGND VPWR sky130_fd_sc_hd__fill_2
XFILLER_91_70 VGND VPWR sky130_fd_sc_hd__decap_3
XFILLER_91_92 VGND VPWR sky130_fd_sc_hd__decap_8
X_0804_ _0799_/X _1101_/Q _0725_/D _0801_/X d_fabric_out[18] VGND VPWR sky130_fd_sc_hd__o22a_4
XFILLER_115_123 VGND VPWR sky130_fd_sc_hd__decap_12
X_0735_ _0521_/A _0669_/X _0739_/D _0742_/D _0655_/B _0735_/X VGND VPWR sky130_fd_sc_hd__a32o_4
XFILLER_115_145 VGND VPWR sky130_fd_sc_hd__fill_2
X_0666_ _0663_/X _0660_/X _0665_/X d_fabric_out[0] VGND VPWR sky130_fd_sc_hd__a21o_4
X_0597_ _0725_/C _0597_/B _0597_/C _0619_/A VGND VPWR sky130_fd_sc_hd__or3_4
XFILLER_29_118 VGND VPWR sky130_fd_sc_hd__fill_2
XFILLER_69_254 VGND VPWR sky130_fd_sc_hd__fill_2
XFILLER_69_265 VGND VPWR sky130_fd_sc_hd__fill_2
XANTENNA__0781__A1_N _0674_/A VGND VPWR sky130_fd_sc_hd__diode_2
XFILLER_84_224 VGND VPWR sky130_fd_sc_hd__fill_2
X_1218_ addr_r[6] baseaddr_r_sync[6] _1109_/CLK VGND VPWR sky130_fd_sc_hd__dfxtp_4
XFILLER_37_151 VGND VPWR sky130_fd_sc_hd__decap_3
XFILLER_52_132 VGND VPWR sky130_fd_sc_hd__fill_2
X_1149_ _1149_/D _0499_/A _1162_/CLK VGND VPWR sky130_fd_sc_hd__dfxtp_4
XFILLER_4_206 VGND VPWR sky130_fd_sc_hd__decap_8
XANTENNA__0722__A _0722_/A VGND VPWR sky130_fd_sc_hd__diode_2
XFILLER_4_239 VGND VPWR sky130_fd_sc_hd__decap_12
XFILLER_136_44 VGND VPWR sky130_fd_sc_hd__decap_12
XFILLER_20_44 VGND VPWR sky130_fd_sc_hd__decap_12
XFILLER_96_15 VGND VPWR sky130_fd_sc_hd__decap_12
XFILLER_121_159 VGND VPWR sky130_fd_sc_hd__decap_12
XFILLER_29_86 VGND VPWR sky130_fd_sc_hd__fill_2
XFILLER_28_195 VGND VPWR sky130_fd_sc_hd__decap_12
Xclkbuf_3_0_0_clk clkbuf_3_1_0_clk/A clkbuf_4_0_0_clk/A VGND VPWR sky130_fd_sc_hd__clkbuf_1
XANTENNA__0616__B _0513_/A VGND VPWR sky130_fd_sc_hd__diode_2
XPHY_352 VGND VPWR sky130_fd_sc_hd__tapvpwrvgnd_1
XPHY_341 VGND VPWR sky130_fd_sc_hd__tapvpwrvgnd_1