* NGSPICE file created from sram_ifc.ext - technology: sky130A

* Black-box entry subcircuit for sky130_fd_sc_hd__fill_2 abstract view
.subckt sky130_fd_sc_hd__fill_2 VGND VPWR
.ends

* Black-box entry subcircuit for sky130_fd_sc_hd__decap_12 abstract view
.subckt sky130_fd_sc_hd__decap_12 VGND VPWR
.ends

* Black-box entry subcircuit for sky130_fd_sc_hd__fill_1 abstract view
.subckt sky130_fd_sc_hd__fill_1 VGND VPWR
.ends

* Black-box entry subcircuit for sky130_fd_sc_hd__diode_2 abstract view
.subckt sky130_fd_sc_hd__diode_2 DIODE VGND VPWR
.ends

* Black-box entry subcircuit for sky130_fd_sc_hd__decap_8 abstract view
.subckt sky130_fd_sc_hd__decap_8 VGND VPWR
.ends

* Black-box entry subcircuit for sky130_fd_sc_hd__decap_3 abstract view
.subckt sky130_fd_sc_hd__decap_3 VGND VPWR
.ends

* Black-box entry subcircuit for sky130_fd_sc_hd__buf_1 abstract view
.subckt sky130_fd_sc_hd__buf_1 A X VGND VPWR
.ends

* Black-box entry subcircuit for sky130_fd_sc_hd__tapvpwrvgnd_1 abstract view
.subckt sky130_fd_sc_hd__tapvpwrvgnd_1 VGND VPWR
.ends

* Black-box entry subcircuit for sky130_fd_sc_hd__a21o_4 abstract view
.subckt sky130_fd_sc_hd__a21o_4 A1 A2 B1 X VGND VPWR
.ends

* Black-box entry subcircuit for sky130_fd_sc_hd__decap_4 abstract view
.subckt sky130_fd_sc_hd__decap_4 VGND VPWR
.ends

* Black-box entry subcircuit for sky130_fd_sc_hd__dfxtp_4 abstract view
.subckt sky130_fd_sc_hd__dfxtp_4 D Q CLK VGND VPWR
.ends

* Black-box entry subcircuit for sky130_fd_sc_hd__clkbuf_1 abstract view
.subckt sky130_fd_sc_hd__clkbuf_1 A X VGND VPWR
.ends

* Black-box entry subcircuit for sky130_fd_sc_hd__and4_4 abstract view
.subckt sky130_fd_sc_hd__and4_4 A B C D X VGND VPWR
.ends

* Black-box entry subcircuit for sky130_fd_sc_hd__decap_6 abstract view
.subckt sky130_fd_sc_hd__decap_6 VGND VPWR
.ends

* Black-box entry subcircuit for sky130_fd_sc_hd__o21a_4 abstract view
.subckt sky130_fd_sc_hd__o21a_4 A1 A2 B1 X VGND VPWR
.ends

* Black-box entry subcircuit for sky130_fd_sc_hd__nor4_4 abstract view
.subckt sky130_fd_sc_hd__nor4_4 A B C D Y VGND VPWR
.ends

* Black-box entry subcircuit for sky130_fd_sc_hd__or4_4 abstract view
.subckt sky130_fd_sc_hd__or4_4 A B C D X VGND VPWR
.ends

* Black-box entry subcircuit for sky130_fd_sc_hd__o22a_4 abstract view
.subckt sky130_fd_sc_hd__o22a_4 A1 A2 B1 B2 X VGND VPWR
.ends

* Black-box entry subcircuit for sky130_fd_sc_hd__a211o_4 abstract view
.subckt sky130_fd_sc_hd__a211o_4 A1 A2 B1 C1 X VGND VPWR
.ends

* Black-box entry subcircuit for sky130_fd_sc_hd__a21bo_4 abstract view
.subckt sky130_fd_sc_hd__a21bo_4 A1 A2 B1_N X VGND VPWR
.ends

* Black-box entry subcircuit for sky130_fd_sc_hd__o21ai_4 abstract view
.subckt sky130_fd_sc_hd__o21ai_4 A1 A2 B1 Y VGND VPWR
.ends

* Black-box entry subcircuit for sky130_fd_sc_hd__a32o_4 abstract view
.subckt sky130_fd_sc_hd__a32o_4 A1 A2 A3 B1 B2 X VGND VPWR
.ends

* Black-box entry subcircuit for sky130_fd_sc_hd__or3_4 abstract view
.subckt sky130_fd_sc_hd__or3_4 A B C X VGND VPWR
.ends

* Black-box entry subcircuit for sky130_fd_sc_hd__inv_8 abstract view
.subckt sky130_fd_sc_hd__inv_8 A Y VGND VPWR
.ends

* Black-box entry subcircuit for sky130_fd_sc_hd__o41a_4 abstract view
.subckt sky130_fd_sc_hd__o41a_4 A1 A2 A3 A4 B1 X VGND VPWR
.ends

* Black-box entry subcircuit for sky130_fd_sc_hd__nor2_4 abstract view
.subckt sky130_fd_sc_hd__nor2_4 A B Y VGND VPWR
.ends

* Black-box entry subcircuit for sky130_fd_sc_hd__and2_4 abstract view
.subckt sky130_fd_sc_hd__and2_4 A B X VGND VPWR
.ends

* Black-box entry subcircuit for sky130_fd_sc_hd__a2111oi_4 abstract view
.subckt sky130_fd_sc_hd__a2111oi_4 A1 A2 B1 C1 D1 Y VGND VPWR
.ends

* Black-box entry subcircuit for sky130_fd_sc_hd__a21oi_4 abstract view
.subckt sky130_fd_sc_hd__a21oi_4 A1 A2 B1 Y VGND VPWR
.ends

* Black-box entry subcircuit for sky130_fd_sc_hd__a2bb2o_4 abstract view
.subckt sky130_fd_sc_hd__a2bb2o_4 A1_N A2_N B1 B2 X VGND VPWR
.ends

* Black-box entry subcircuit for sky130_fd_sc_hd__nor3_4 abstract view
.subckt sky130_fd_sc_hd__nor3_4 A B C Y VGND VPWR
.ends

* Black-box entry subcircuit for sky130_fd_sc_hd__or2_4 abstract view
.subckt sky130_fd_sc_hd__or2_4 A B X VGND VPWR
.ends

* Black-box entry subcircuit for sky130_fd_sc_hd__clkbuf_16 abstract view
.subckt sky130_fd_sc_hd__clkbuf_16 A X VGND VPWR
.ends

* Black-box entry subcircuit for sky130_fd_sc_hd__a22oi_4 abstract view
.subckt sky130_fd_sc_hd__a22oi_4 A1 A2 B1 B2 Y VGND VPWR
.ends

* Black-box entry subcircuit for sky130_fd_sc_hd__nand3_4 abstract view
.subckt sky130_fd_sc_hd__nand3_4 A B C Y VGND VPWR
.ends

* Black-box entry subcircuit for sky130_fd_sc_hd__and3_4 abstract view
.subckt sky130_fd_sc_hd__and3_4 A B C X VGND VPWR
.ends

* Black-box entry subcircuit for sky130_fd_sc_hd__a32oi_4 abstract view
.subckt sky130_fd_sc_hd__a32oi_4 A1 A2 A3 B1 B2 Y VGND VPWR
.ends

* Black-box entry subcircuit for sky130_fd_sc_hd__nand4_4 abstract view
.subckt sky130_fd_sc_hd__nand4_4 A B C D Y VGND VPWR
.ends

.subckt sram_ifc addr_r[0] addr_r[10] addr_r[11] addr_r[12] addr_r[13] addr_r[1] addr_r[2]
+ addr_r[3] addr_r[4] addr_r[5] addr_r[6] addr_r[7] addr_r[8] addr_r[9] addr_w[0]
+ addr_w[10] addr_w[11] addr_w[12] addr_w[13] addr_w[1] addr_w[2] addr_w[3] addr_w[4]
+ addr_w[5] addr_w[6] addr_w[7] addr_w[8] addr_w[9] baseaddr_r_sync[0] baseaddr_r_sync[1]
+ baseaddr_r_sync[2] baseaddr_r_sync[3] baseaddr_r_sync[4] baseaddr_r_sync[5] baseaddr_r_sync[6]
+ baseaddr_r_sync[7] baseaddr_r_sync[8] baseaddr_w_sync[0] baseaddr_w_sync[1] baseaddr_w_sync[2]
+ baseaddr_w_sync[3] baseaddr_w_sync[4] baseaddr_w_sync[5] baseaddr_w_sync[6] baseaddr_w_sync[7]
+ baseaddr_w_sync[8] clk conf[0] conf[1] conf[2] csb csb0_sync csb1_sync d_fabric_in[0]
+ d_fabric_in[10] d_fabric_in[11] d_fabric_in[12] d_fabric_in[13] d_fabric_in[14]
+ d_fabric_in[15] d_fabric_in[16] d_fabric_in[17] d_fabric_in[18] d_fabric_in[19]
+ d_fabric_in[1] d_fabric_in[20] d_fabric_in[21] d_fabric_in[22] d_fabric_in[23] d_fabric_in[24]
+ d_fabric_in[25] d_fabric_in[26] d_fabric_in[27] d_fabric_in[28] d_fabric_in[29]
+ d_fabric_in[2] d_fabric_in[30] d_fabric_in[31] d_fabric_in[3] d_fabric_in[4] d_fabric_in[5]
+ d_fabric_in[6] d_fabric_in[7] d_fabric_in[8] d_fabric_in[9] d_fabric_out[0] d_fabric_out[10]
+ d_fabric_out[11] d_fabric_out[12] d_fabric_out[13] d_fabric_out[14] d_fabric_out[15]
+ d_fabric_out[16] d_fabric_out[17] d_fabric_out[18] d_fabric_out[19] d_fabric_out[1]
+ d_fabric_out[20] d_fabric_out[21] d_fabric_out[22] d_fabric_out[23] d_fabric_out[24]
+ d_fabric_out[25] d_fabric_out[26] d_fabric_out[27] d_fabric_out[28] d_fabric_out[29]
+ d_fabric_out[2] d_fabric_out[30] d_fabric_out[31] d_fabric_out[3] d_fabric_out[4]
+ d_fabric_out[5] d_fabric_out[6] d_fabric_out[7] d_fabric_out[8] d_fabric_out[9]
+ d_sram_in[0] d_sram_in[10] d_sram_in[11] d_sram_in[12] d_sram_in[13] d_sram_in[14]
+ d_sram_in[15] d_sram_in[16] d_sram_in[17] d_sram_in[18] d_sram_in[19] d_sram_in[1]
+ d_sram_in[20] d_sram_in[21] d_sram_in[22] d_sram_in[23] d_sram_in[24] d_sram_in[25]
+ d_sram_in[26] d_sram_in[27] d_sram_in[28] d_sram_in[29] d_sram_in[2] d_sram_in[30]
+ d_sram_in[31] d_sram_in[3] d_sram_in[4] d_sram_in[5] d_sram_in[6] d_sram_in[7] d_sram_in[8]
+ d_sram_in[9] d_sram_out[0] d_sram_out[10] d_sram_out[11] d_sram_out[12] d_sram_out[13]
+ d_sram_out[14] d_sram_out[15] d_sram_out[16] d_sram_out[17] d_sram_out[18] d_sram_out[19]
+ d_sram_out[1] d_sram_out[20] d_sram_out[21] d_sram_out[22] d_sram_out[23] d_sram_out[24]
+ d_sram_out[25] d_sram_out[26] d_sram_out[27] d_sram_out[28] d_sram_out[29] d_sram_out[2]
+ d_sram_out[30] d_sram_out[31] d_sram_out[3] d_sram_out[4] d_sram_out[5] d_sram_out[6]
+ d_sram_out[7] d_sram_out[8] d_sram_out[9] out_reg reb w_mask[0] w_mask[10] w_mask[11]
+ w_mask[12] w_mask[13] w_mask[14] w_mask[15] w_mask[16] w_mask[17] w_mask[18] w_mask[19]
+ w_mask[1] w_mask[20] w_mask[21] w_mask[22] w_mask[23] w_mask[24] w_mask[25] w_mask[26]
+ w_mask[27] w_mask[28] w_mask[29] w_mask[2] w_mask[30] w_mask[31] w_mask[3] w_mask[4]
+ w_mask[5] w_mask[6] w_mask[7] w_mask[8] w_mask[9] web web0_sync VPWR VGND
XFILLER_100_149 VGND VPWR sky130_fd_sc_hd__fill_2
XFILLER_100_138 VGND VPWR sky130_fd_sc_hd__fill_2
XFILLER_79_391 VGND VPWR sky130_fd_sc_hd__decap_12
XFILLER_94_361 VGND VPWR sky130_fd_sc_hd__decap_12
XFILLER_36_19 VGND VPWR sky130_fd_sc_hd__decap_12
XFILLER_54_203 VGND VPWR sky130_fd_sc_hd__fill_2
XFILLER_39_288 VGND VPWR sky130_fd_sc_hd__decap_12
XFILLER_22_111 VGND VPWR sky130_fd_sc_hd__fill_1
XFILLER_108_205 VGND VPWR sky130_fd_sc_hd__fill_2
XANTENNA__0703__A _0629_/X VGND VPWR sky130_fd_sc_hd__diode_2
XFILLER_123_208 VGND VPWR sky130_fd_sc_hd__decap_12
XFILLER_89_155 VGND VPWR sky130_fd_sc_hd__fill_2
XFILLER_77_59 VGND VPWR sky130_fd_sc_hd__fill_2
XFILLER_18_406 VGND VPWR sky130_fd_sc_hd__fill_1
XFILLER_133_98 VGND VPWR sky130_fd_sc_hd__decap_12
XFILLER_45_214 VGND VPWR sky130_fd_sc_hd__fill_2
XFILLER_45_258 VGND VPWR sky130_fd_sc_hd__fill_2
XFILLER_45_269 VGND VPWR sky130_fd_sc_hd__fill_2
XFILLER_53_280 VGND VPWR sky130_fd_sc_hd__fill_2
XFILLER_53_291 VGND VPWR sky130_fd_sc_hd__fill_2
XFILLER_9_159 VGND VPWR sky130_fd_sc_hd__decap_12
XANTENNA__0613__A _0697_/A VGND VPWR sky130_fd_sc_hd__diode_2
XFILLER_5_354 VGND VPWR sky130_fd_sc_hd__decap_12
XANTENNA__1104__CLK _1163_/CLK VGND VPWR sky130_fd_sc_hd__diode_2
XANTENNA__0708__B1 _0707_/X VGND VPWR sky130_fd_sc_hd__diode_2
XFILLER_122_263 VGND VPWR sky130_fd_sc_hd__decap_12
XFILLER_122_252 VGND VPWR sky130_fd_sc_hd__decap_8
XANTENNA__0765__A2_N _0528_/X VGND VPWR sky130_fd_sc_hd__diode_2
XFILLER_76_361 VGND VPWR sky130_fd_sc_hd__decap_12
XFILLER_76_394 VGND VPWR sky130_fd_sc_hd__decap_3
XFILLER_36_258 VGND VPWR sky130_fd_sc_hd__decap_12
XFILLER_51_228 VGND VPWR sky130_fd_sc_hd__fill_2
XFILLER_51_239 VGND VPWR sky130_fd_sc_hd__fill_2
X_0985_ _0985_/A _0985_/X VGND VPWR sky130_fd_sc_hd__buf_1
XANTENNA__0523__A _0523_/A VGND VPWR sky130_fd_sc_hd__diode_2
XFILLER_103_24 VGND VPWR sky130_fd_sc_hd__decap_12
XFILLER_67_383 VGND VPWR sky130_fd_sc_hd__decap_12
XFILLER_82_331 VGND VPWR sky130_fd_sc_hd__fill_2
XFILLER_27_269 VGND VPWR sky130_fd_sc_hd__decap_12
XFILLER_63_39 VGND VPWR sky130_fd_sc_hd__decap_12
XFILLER_82_364 VGND VPWR sky130_fd_sc_hd__decap_12
XPHY_927 VGND VPWR sky130_fd_sc_hd__tapvpwrvgnd_1
XPHY_916 VGND VPWR sky130_fd_sc_hd__tapvpwrvgnd_1
XPHY_905 VGND VPWR sky130_fd_sc_hd__tapvpwrvgnd_1
XPHY_949 VGND VPWR sky130_fd_sc_hd__tapvpwrvgnd_1
XPHY_938 VGND VPWR sky130_fd_sc_hd__tapvpwrvgnd_1
XFILLER_50_272 VGND VPWR sky130_fd_sc_hd__decap_3
XFILLER_136_300 VGND VPWR sky130_fd_sc_hd__fill_1
XANTENNA__0650__A2 _0623_/X VGND VPWR sky130_fd_sc_hd__diode_2
XFILLER_12_32 VGND VPWR sky130_fd_sc_hd__decap_12
XFILLER_6_129 VGND VPWR sky130_fd_sc_hd__decap_12
XANTENNA__1127__CLK _1127_/CLK VGND VPWR sky130_fd_sc_hd__diode_2
XFILLER_128_32 VGND VPWR sky130_fd_sc_hd__decap_12
XFILLER_2_324 VGND VPWR sky130_fd_sc_hd__decap_12
XFILLER_85_191 VGND VPWR sky130_fd_sc_hd__fill_2
XFILLER_37_62 VGND VPWR sky130_fd_sc_hd__decap_12
XANTENNA__0608__A _0542_/D VGND VPWR sky130_fd_sc_hd__diode_2
X_0770_ _0762_/X _1089_/D _0769_/X d_fabric_out[6] VGND VPWR sky130_fd_sc_hd__a21o_4
XFILLER_5_184 VGND VPWR sky130_fd_sc_hd__decap_12
XFILLER_110_211 VGND VPWR sky130_fd_sc_hd__decap_3
XFILLER_78_80 VGND VPWR sky130_fd_sc_hd__decap_4
XFILLER_68_147 VGND VPWR sky130_fd_sc_hd__decap_4
X_1184_ d_fabric_in[18] _1184_/Q _1187_/CLK VGND VPWR sky130_fd_sc_hd__dfxtp_4
XFILLER_91_150 VGND VPWR sky130_fd_sc_hd__fill_2
XANTENNA__0518__A _0587_/A VGND VPWR sky130_fd_sc_hd__diode_2
XANTENNA__0632__A2 _0627_/Y VGND VPWR sky130_fd_sc_hd__diode_2
XFILLER_118_300 VGND VPWR sky130_fd_sc_hd__decap_12
X_0968_ _0968_/A _0968_/X VGND VPWR sky130_fd_sc_hd__buf_1
Xclkbuf_4_12_0_clk clkbuf_3_6_0_clk/X _1187_/CLK VGND VPWR sky130_fd_sc_hd__clkbuf_1
X_0899_ _0899_/A _0899_/B _0903_/C _1177_/Q _0899_/X VGND VPWR sky130_fd_sc_hd__and4_4
XANTENNA__0700__B _0700_/B VGND VPWR sky130_fd_sc_hd__diode_2
XFILLER_58_28 VGND VPWR sky130_fd_sc_hd__decap_3
XFILLER_59_114 VGND VPWR sky130_fd_sc_hd__fill_2
XFILLER_47_309 VGND VPWR sky130_fd_sc_hd__fill_2
XFILLER_114_56 VGND VPWR sky130_fd_sc_hd__decap_12
XFILLER_101_277 VGND VPWR sky130_fd_sc_hd__fill_2
XFILLER_74_117 VGND VPWR sky130_fd_sc_hd__decap_6
XFILLER_74_27 VGND VPWR sky130_fd_sc_hd__decap_4
XFILLER_82_161 VGND VPWR sky130_fd_sc_hd__fill_2
XFILLER_130_44 VGND VPWR sky130_fd_sc_hd__decap_12
XPHY_702 VGND VPWR sky130_fd_sc_hd__tapvpwrvgnd_1
XANTENNA__0871__A2 _0833_/X VGND VPWR sky130_fd_sc_hd__diode_2
XFILLER_90_15 VGND VPWR sky130_fd_sc_hd__decap_12
XPHY_713 VGND VPWR sky130_fd_sc_hd__tapvpwrvgnd_1
XPHY_724 VGND VPWR sky130_fd_sc_hd__tapvpwrvgnd_1
XPHY_735 VGND VPWR sky130_fd_sc_hd__tapvpwrvgnd_1
XFILLER_70_367 VGND VPWR sky130_fd_sc_hd__fill_1
XPHY_746 VGND VPWR sky130_fd_sc_hd__tapvpwrvgnd_1
XPHY_757 VGND VPWR sky130_fd_sc_hd__tapvpwrvgnd_1
XPHY_768 VGND VPWR sky130_fd_sc_hd__tapvpwrvgnd_1
XFILLER_135_3 VGND VPWR sky130_fd_sc_hd__decap_12
XANTENNA__0623__A2 _0620_/X VGND VPWR sky130_fd_sc_hd__diode_2
XPHY_779 VGND VPWR sky130_fd_sc_hd__tapvpwrvgnd_1
XFILLER_23_86 VGND VPWR sky130_fd_sc_hd__decap_12
XFILLER_136_141 VGND VPWR sky130_fd_sc_hd__decap_12
XFILLER_2_154 VGND VPWR sky130_fd_sc_hd__decap_12
XFILLER_2_198 VGND VPWR sky130_fd_sc_hd__fill_2
XANTENNA__1144__D d_sram_out[29] VGND VPWR sky130_fd_sc_hd__diode_2
XFILLER_65_139 VGND VPWR sky130_fd_sc_hd__fill_2
XANTENNA__0847__C1 _0846_/X VGND VPWR sky130_fd_sc_hd__diode_2
XANTENNA__0862__A2 _0839_/X VGND VPWR sky130_fd_sc_hd__diode_2
XFILLER_61_367 VGND VPWR sky130_fd_sc_hd__decap_12
XFILLER_64_93 VGND VPWR sky130_fd_sc_hd__decap_8
X_0822_ d_sram_in[0] _0880_/A VGND VPWR sky130_fd_sc_hd__buf_1
X_0753_ _0540_/D _0496_/A _0709_/X _0753_/X VGND VPWR sky130_fd_sc_hd__o21a_4
XFILLER_127_196 VGND VPWR sky130_fd_sc_hd__decap_12
XANTENNA__0801__A _0776_/A VGND VPWR sky130_fd_sc_hd__diode_2
X_0684_ _0684_/A _0676_/X _0677_/X _0684_/D _0684_/Y VGND VPWR sky130_fd_sc_hd__nor4_4
Xclkbuf_3_1_0_clk clkbuf_3_1_0_clk/A clkbuf_4_3_0_clk/A VGND VPWR sky130_fd_sc_hd__clkbuf_1
XFILLER_123_391 VGND VPWR sky130_fd_sc_hd__decap_12
XFILLER_37_342 VGND VPWR sky130_fd_sc_hd__decap_12
X_1167_ d_fabric_in[1] _0827_/A _1175_/CLK VGND VPWR sky130_fd_sc_hd__dfxtp_4
XFILLER_64_161 VGND VPWR sky130_fd_sc_hd__fill_1
XFILLER_52_334 VGND VPWR sky130_fd_sc_hd__fill_2
XFILLER_64_183 VGND VPWR sky130_fd_sc_hd__fill_2
X_1098_ _0798_/X _1098_/Q _1127_/CLK VGND VPWR sky130_fd_sc_hd__dfxtp_4
XANTENNA__0853__A2 _0946_/A VGND VPWR sky130_fd_sc_hd__diode_2
XFILLER_20_264 VGND VPWR sky130_fd_sc_hd__decap_8
XFILLER_118_141 VGND VPWR sky130_fd_sc_hd__decap_12
XANTENNA__1030__A2 _1025_/X VGND VPWR sky130_fd_sc_hd__diode_2
XANTENNA__0711__A _0659_/A VGND VPWR sky130_fd_sc_hd__diode_2
XFILLER_121_306 VGND VPWR sky130_fd_sc_hd__decap_12
XFILLER_85_15 VGND VPWR sky130_fd_sc_hd__decap_12
XFILLER_85_59 VGND VPWR sky130_fd_sc_hd__fill_2
XFILLER_43_301 VGND VPWR sky130_fd_sc_hd__decap_4
XPHY_510 VGND VPWR sky130_fd_sc_hd__tapvpwrvgnd_1
XFILLER_43_367 VGND VPWR sky130_fd_sc_hd__decap_12
XPHY_521 VGND VPWR sky130_fd_sc_hd__tapvpwrvgnd_1
XPHY_532 VGND VPWR sky130_fd_sc_hd__tapvpwrvgnd_1
XPHY_543 VGND VPWR sky130_fd_sc_hd__tapvpwrvgnd_1
XFILLER_70_164 VGND VPWR sky130_fd_sc_hd__decap_8
XPHY_1131 VGND VPWR sky130_fd_sc_hd__tapvpwrvgnd_1
XPHY_1120 VGND VPWR sky130_fd_sc_hd__tapvpwrvgnd_1
XFILLER_11_220 VGND VPWR sky130_fd_sc_hd__decap_12
XPHY_554 VGND VPWR sky130_fd_sc_hd__tapvpwrvgnd_1
XPHY_565 VGND VPWR sky130_fd_sc_hd__tapvpwrvgnd_1
XPHY_576 VGND VPWR sky130_fd_sc_hd__tapvpwrvgnd_1
XPHY_587 VGND VPWR sky130_fd_sc_hd__tapvpwrvgnd_1
XPHY_1175 VGND VPWR sky130_fd_sc_hd__tapvpwrvgnd_1
XPHY_1164 VGND VPWR sky130_fd_sc_hd__tapvpwrvgnd_1
XPHY_1153 VGND VPWR sky130_fd_sc_hd__tapvpwrvgnd_1
XPHY_1142 VGND VPWR sky130_fd_sc_hd__tapvpwrvgnd_1
XPHY_598 VGND VPWR sky130_fd_sc_hd__tapvpwrvgnd_1
XPHY_1186 VGND VPWR sky130_fd_sc_hd__tapvpwrvgnd_1
XFILLER_7_257 VGND VPWR sky130_fd_sc_hd__decap_12
XFILLER_109_174 VGND VPWR sky130_fd_sc_hd__decap_8
XANTENNA__1139__D d_sram_out[24] VGND VPWR sky130_fd_sc_hd__diode_2
XFILLER_109_196 VGND VPWR sky130_fd_sc_hd__decap_12
XFILLER_124_166 VGND VPWR sky130_fd_sc_hd__decap_12
XANTENNA__0978__D _0991_/D VGND VPWR sky130_fd_sc_hd__diode_2
XANTENNA__0780__A1 _0779_/X VGND VPWR sky130_fd_sc_hd__diode_2
XANTENNA__0780__B2 _1091_/Q VGND VPWR sky130_fd_sc_hd__diode_2
XFILLER_105_391 VGND VPWR sky130_fd_sc_hd__decap_12
XFILLER_59_82 VGND VPWR sky130_fd_sc_hd__fill_2
XFILLER_120_361 VGND VPWR sky130_fd_sc_hd__decap_12
XANTENNA__0994__C _0954_/A VGND VPWR sky130_fd_sc_hd__diode_2
X_1021_ _0978_/A _1021_/B _0978_/C _1024_/D _1021_/X VGND VPWR sky130_fd_sc_hd__or4_4
XFILLER_93_278 VGND VPWR sky130_fd_sc_hd__fill_2
XFILLER_19_342 VGND VPWR sky130_fd_sc_hd__decap_12
XFILLER_46_150 VGND VPWR sky130_fd_sc_hd__decap_3
XFILLER_34_312 VGND VPWR sky130_fd_sc_hd__decap_12
XFILLER_61_131 VGND VPWR sky130_fd_sc_hd__fill_2
XFILLER_98_3 VGND VPWR sky130_fd_sc_hd__decap_12
XANTENNA__0930__B1_N _0873_/X VGND VPWR sky130_fd_sc_hd__diode_2
X_0805_ _0799_/X _1102_/Q _0695_/X _0801_/X d_fabric_out[19] VGND VPWR sky130_fd_sc_hd__o22a_4
XANTENNA__1012__A2 _0983_/X VGND VPWR sky130_fd_sc_hd__diode_2
XANTENNA__0531__A _0580_/C VGND VPWR sky130_fd_sc_hd__diode_2
X_0736_ _0668_/X _1126_/Q _0501_/X _0735_/X _0736_/X VGND VPWR sky130_fd_sc_hd__a211o_4
XFILLER_103_306 VGND VPWR sky130_fd_sc_hd__fill_2
XANTENNA__1065__C _1010_/C VGND VPWR sky130_fd_sc_hd__diode_2
X_0667_ _0493_/X _0750_/A VGND VPWR sky130_fd_sc_hd__buf_1
X_0598_ _0579_/C _0701_/B VGND VPWR sky130_fd_sc_hd__buf_1
XANTENNA__1079__A2 _1040_/X VGND VPWR sky130_fd_sc_hd__diode_2
X_1219_ addr_r[7] baseaddr_r_sync[7] _1124_/CLK VGND VPWR sky130_fd_sc_hd__dfxtp_4
XFILLER_25_301 VGND VPWR sky130_fd_sc_hd__decap_4
XFILLER_25_367 VGND VPWR sky130_fd_sc_hd__decap_12
XFILLER_37_194 VGND VPWR sky130_fd_sc_hd__fill_2
XANTENNA__0826__A2 _0943_/B VGND VPWR sky130_fd_sc_hd__diode_2
XFILLER_111_57 VGND VPWR sky130_fd_sc_hd__decap_4
XFILLER_40_337 VGND VPWR sky130_fd_sc_hd__decap_12
XFILLER_20_32 VGND VPWR sky130_fd_sc_hd__decap_12
XFILLER_4_227 VGND VPWR sky130_fd_sc_hd__decap_12
XFILLER_136_32 VGND VPWR sky130_fd_sc_hd__decap_12
XFILLER_106_166 VGND VPWR sky130_fd_sc_hd__decap_12
XFILLER_106_188 VGND VPWR sky130_fd_sc_hd__fill_2
XFILLER_121_147 VGND VPWR sky130_fd_sc_hd__decap_12
XFILLER_102_361 VGND VPWR sky130_fd_sc_hd__decap_12
XFILLER_29_74 VGND VPWR sky130_fd_sc_hd__decap_12
XFILLER_75_245 VGND VPWR sky130_fd_sc_hd__fill_2
XFILLER_75_267 VGND VPWR sky130_fd_sc_hd__fill_2
XFILLER_28_161 VGND VPWR sky130_fd_sc_hd__fill_2
XFILLER_16_312 VGND VPWR sky130_fd_sc_hd__decap_12
XANTENNA__0817__A2 _1110_/Q VGND VPWR sky130_fd_sc_hd__diode_2
XFILLER_45_62 VGND VPWR sky130_fd_sc_hd__fill_2
XFILLER_43_175 VGND VPWR sky130_fd_sc_hd__fill_2
XANTENNA__0616__A _1151_/Q VGND VPWR sky130_fd_sc_hd__diode_2
XPHY_351 VGND VPWR sky130_fd_sc_hd__tapvpwrvgnd_1
XPHY_340 VGND VPWR sky130_fd_sc_hd__tapvpwrvgnd_1
XPHY_395 VGND VPWR sky130_fd_sc_hd__tapvpwrvgnd_1
XPHY_384 VGND VPWR sky130_fd_sc_hd__tapvpwrvgnd_1
XPHY_373 VGND VPWR sky130_fd_sc_hd__tapvpwrvgnd_1
XPHY_362 VGND VPWR sky130_fd_sc_hd__tapvpwrvgnd_1
XFILLER_61_94 VGND VPWR sky130_fd_sc_hd__fill_2
XFILLER_129_269 VGND VPWR sky130_fd_sc_hd__decap_12
XFILLER_6_56 VGND VPWR sky130_fd_sc_hd__decap_12
X_0521_ _0512_/X _0740_/B _0677_/C _1127_/Q _0546_/B VGND VPWR sky130_fd_sc_hd__and4_4
XFILLER_98_337 VGND VPWR sky130_fd_sc_hd__decap_8
XFILLER_98_326 VGND VPWR sky130_fd_sc_hd__decap_6
XANTENNA__0753__A1 _0540_/D VGND VPWR sky130_fd_sc_hd__diode_2
XFILLER_3_293 VGND VPWR sky130_fd_sc_hd__decap_12
XFILLER_86_80 VGND VPWR sky130_fd_sc_hd__decap_12
XFILLER_13_3 VGND VPWR sky130_fd_sc_hd__fill_2
X_1004_ _1003_/Y _1024_/D VGND VPWR sky130_fd_sc_hd__buf_1
XANTENNA__0526__A _0525_/X VGND VPWR sky130_fd_sc_hd__diode_2
XFILLER_22_337 VGND VPWR sky130_fd_sc_hd__decap_12
XFILLER_34_186 VGND VPWR sky130_fd_sc_hd__fill_2
XFILLER_135_228 VGND VPWR sky130_fd_sc_hd__decap_12
XANTENNA__0899__C _0903_/C VGND VPWR sky130_fd_sc_hd__diode_2
XANTENNA__1160__CLK _1201_/CLK VGND VPWR sky130_fd_sc_hd__diode_2
XFILLER_89_326 VGND VPWR sky130_fd_sc_hd__fill_2
XFILLER_89_315 VGND VPWR sky130_fd_sc_hd__fill_2
XFILLER_1_208 VGND VPWR sky130_fd_sc_hd__decap_3
X_0719_ _0651_/Y _0719_/X VGND VPWR sky130_fd_sc_hd__buf_1
XFILLER_103_147 VGND VPWR sky130_fd_sc_hd__decap_12
XFILLER_106_68 VGND VPWR sky130_fd_sc_hd__decap_12
XFILLER_57_267 VGND VPWR sky130_fd_sc_hd__fill_2
XFILLER_122_56 VGND VPWR sky130_fd_sc_hd__decap_12
XFILLER_72_215 VGND VPWR sky130_fd_sc_hd__fill_2
XFILLER_25_131 VGND VPWR sky130_fd_sc_hd__fill_2
XFILLER_40_101 VGND VPWR sky130_fd_sc_hd__fill_2
XFILLER_40_112 VGND VPWR sky130_fd_sc_hd__fill_2
XFILLER_40_123 VGND VPWR sky130_fd_sc_hd__fill_1
XFILLER_40_134 VGND VPWR sky130_fd_sc_hd__fill_2
XFILLER_15_98 VGND VPWR sky130_fd_sc_hd__decap_12
XFILLER_40_145 VGND VPWR sky130_fd_sc_hd__fill_2
XFILLER_31_42 VGND VPWR sky130_fd_sc_hd__decap_12
XFILLER_31_86 VGND VPWR sky130_fd_sc_hd__decap_12
XANTENNA__0602__C _0702_/C VGND VPWR sky130_fd_sc_hd__diode_2
XANTENNA__0735__A1 _0512_/X VGND VPWR sky130_fd_sc_hd__diode_2
XANTENNA__0735__B2 _0771_/B VGND VPWR sky130_fd_sc_hd__diode_2
XFILLER_0_230 VGND VPWR sky130_fd_sc_hd__decap_12
XFILLER_95_318 VGND VPWR sky130_fd_sc_hd__decap_12
XFILLER_48_201 VGND VPWR sky130_fd_sc_hd__decap_3
XFILLER_102_191 VGND VPWR sky130_fd_sc_hd__fill_2
XFILLER_48_245 VGND VPWR sky130_fd_sc_hd__fill_2
XFILLER_48_289 VGND VPWR sky130_fd_sc_hd__fill_2
XANTENNA__1152__D _1160_/Q VGND VPWR sky130_fd_sc_hd__diode_2
XFILLER_63_237 VGND VPWR sky130_fd_sc_hd__fill_2
XANTENNA__0991__D _0991_/D VGND VPWR sky130_fd_sc_hd__diode_2
XPHY_170 VGND VPWR sky130_fd_sc_hd__decap_3
XANTENNA__0671__B1 _0487_/X VGND VPWR sky130_fd_sc_hd__diode_2
XFILLER_72_93 VGND VPWR sky130_fd_sc_hd__decap_6
XPHY_192 VGND VPWR sky130_fd_sc_hd__decap_3
XPHY_181 VGND VPWR sky130_fd_sc_hd__decap_3
XANTENNA__1183__CLK _1187_/CLK VGND VPWR sky130_fd_sc_hd__diode_2
XFILLER_8_385 VGND VPWR sky130_fd_sc_hd__decap_12
XFILLER_98_145 VGND VPWR sky130_fd_sc_hd__decap_4
XFILLER_98_134 VGND VPWR sky130_fd_sc_hd__fill_2
XFILLER_98_123 VGND VPWR sky130_fd_sc_hd__decap_8
X_0504_ _0504_/A _0505_/B VGND VPWR sky130_fd_sc_hd__buf_1
XFILLER_98_189 VGND VPWR sky130_fd_sc_hd__fill_2
XFILLER_86_329 VGND VPWR sky130_fd_sc_hd__decap_6
XFILLER_100_117 VGND VPWR sky130_fd_sc_hd__decap_12
XFILLER_39_234 VGND VPWR sky130_fd_sc_hd__fill_2
XFILLER_94_373 VGND VPWR sky130_fd_sc_hd__decap_12
XFILLER_54_215 VGND VPWR sky130_fd_sc_hd__fill_2
XANTENNA__0703__B _0700_/X VGND VPWR sky130_fd_sc_hd__diode_2
XFILLER_131_220 VGND VPWR sky130_fd_sc_hd__decap_12
XFILLER_89_123 VGND VPWR sky130_fd_sc_hd__decap_12
XFILLER_93_15 VGND VPWR sky130_fd_sc_hd__decap_12
XFILLER_93_59 VGND VPWR sky130_fd_sc_hd__fill_2
XFILLER_60_229 VGND VPWR sky130_fd_sc_hd__fill_2
XFILLER_13_123 VGND VPWR sky130_fd_sc_hd__decap_12
XANTENNA__0613__B _0701_/B VGND VPWR sky130_fd_sc_hd__diode_2
XANTENNA__0708__A1 _0705_/X VGND VPWR sky130_fd_sc_hd__diode_2
XANTENNA__1147__D _1155_/Q VGND VPWR sky130_fd_sc_hd__diode_2
XFILLER_36_204 VGND VPWR sky130_fd_sc_hd__fill_2
XFILLER_36_226 VGND VPWR sky130_fd_sc_hd__fill_2
XFILLER_76_373 VGND VPWR sky130_fd_sc_hd__decap_6
XANTENNA__0892__B1 _0891_/X VGND VPWR sky130_fd_sc_hd__diode_2
XFILLER_44_270 VGND VPWR sky130_fd_sc_hd__fill_2
XFILLER_80_3 VGND VPWR sky130_fd_sc_hd__fill_2
X_0984_ _0843_/A _0985_/A VGND VPWR sky130_fd_sc_hd__buf_1
XFILLER_113_220 VGND VPWR sky130_fd_sc_hd__decap_12
XFILLER_94_170 VGND VPWR sky130_fd_sc_hd__fill_2
XFILLER_82_310 VGND VPWR sky130_fd_sc_hd__fill_2
XFILLER_103_36 VGND VPWR sky130_fd_sc_hd__decap_12
XFILLER_94_192 VGND VPWR sky130_fd_sc_hd__decap_3
XFILLER_67_395 VGND VPWR sky130_fd_sc_hd__decap_12
XFILLER_82_376 VGND VPWR sky130_fd_sc_hd__decap_12
XPHY_917 VGND VPWR sky130_fd_sc_hd__tapvpwrvgnd_1
XPHY_906 VGND VPWR sky130_fd_sc_hd__tapvpwrvgnd_1
XFILLER_82_398 VGND VPWR sky130_fd_sc_hd__decap_8
XPHY_939 VGND VPWR sky130_fd_sc_hd__tapvpwrvgnd_1
XPHY_928 VGND VPWR sky130_fd_sc_hd__tapvpwrvgnd_1
XANTENNA__0714__A _0713_/X VGND VPWR sky130_fd_sc_hd__diode_2
XFILLER_12_44 VGND VPWR sky130_fd_sc_hd__decap_12
XANTENNA__0938__A1 _1196_/Q VGND VPWR sky130_fd_sc_hd__diode_2
XFILLER_128_44 VGND VPWR sky130_fd_sc_hd__decap_12
XANTENNA__1060__B1 _1057_/X VGND VPWR sky130_fd_sc_hd__diode_2
XFILLER_88_15 VGND VPWR sky130_fd_sc_hd__decap_12
XFILLER_77_115 VGND VPWR sky130_fd_sc_hd__fill_1
XFILLER_77_137 VGND VPWR sky130_fd_sc_hd__fill_2
XFILLER_77_159 VGND VPWR sky130_fd_sc_hd__fill_2
XFILLER_92_118 VGND VPWR sky130_fd_sc_hd__decap_12
XFILLER_18_215 VGND VPWR sky130_fd_sc_hd__decap_12
XFILLER_18_204 VGND VPWR sky130_fd_sc_hd__decap_8
XFILLER_73_310 VGND VPWR sky130_fd_sc_hd__decap_12
XFILLER_37_74 VGND VPWR sky130_fd_sc_hd__decap_12
XANTENNA__0874__B1 _0873_/X VGND VPWR sky130_fd_sc_hd__diode_2
XANTENNA__0608__B _0524_/X VGND VPWR sky130_fd_sc_hd__diode_2
XFILLER_73_354 VGND VPWR sky130_fd_sc_hd__fill_1
XFILLER_73_365 VGND VPWR sky130_fd_sc_hd__fill_1
XFILLER_41_240 VGND VPWR sky130_fd_sc_hd__fill_2
XFILLER_53_51 VGND VPWR sky130_fd_sc_hd__decap_8
XFILLER_53_62 VGND VPWR sky130_fd_sc_hd__fill_2
XANTENNA__0624__A _0580_/B VGND VPWR sky130_fd_sc_hd__diode_2
XANTENNA__0929__A1 _1188_/Q VGND VPWR sky130_fd_sc_hd__diode_2
XFILLER_127_367 VGND VPWR sky130_fd_sc_hd__decap_12
XANTENNA__1051__B1 _1049_/X VGND VPWR sky130_fd_sc_hd__diode_2
XANTENNA__1221__CLK _1221_/CLK VGND VPWR sky130_fd_sc_hd__diode_2
XFILLER_5_196 VGND VPWR sky130_fd_sc_hd__decap_12
XFILLER_1_391 VGND VPWR sky130_fd_sc_hd__decap_12
XFILLER_94_80 VGND VPWR sky130_fd_sc_hd__decap_12
X_1183_ d_fabric_in[17] _1183_/Q _1187_/CLK VGND VPWR sky130_fd_sc_hd__dfxtp_4
XFILLER_91_162 VGND VPWR sky130_fd_sc_hd__fill_1
XANTENNA__0865__B1 _0844_/X VGND VPWR sky130_fd_sc_hd__diode_2
XFILLER_17_281 VGND VPWR sky130_fd_sc_hd__decap_12
XFILLER_64_398 VGND VPWR sky130_fd_sc_hd__decap_8
XANTENNA__0534__A _0580_/A VGND VPWR sky130_fd_sc_hd__diode_2
XFILLER_118_312 VGND VPWR sky130_fd_sc_hd__decap_12
X_0967_ _0945_/Y _0966_/Y _0946_/X _0960_/X w_mask[1] VGND VPWR sky130_fd_sc_hd__a211o_4
X_0898_ _0895_/D _0877_/X _0897_/Y d_sram_in[10] VGND VPWR sky130_fd_sc_hd__a21bo_4
XANTENNA__0700__C _0656_/B VGND VPWR sky130_fd_sc_hd__diode_2
XFILLER_99_284 VGND VPWR sky130_fd_sc_hd__fill_2
XFILLER_99_273 VGND VPWR sky130_fd_sc_hd__decap_3
XFILLER_101_245 VGND VPWR sky130_fd_sc_hd__decap_4
XFILLER_59_159 VGND VPWR sky130_fd_sc_hd__fill_2
XFILLER_55_310 VGND VPWR sky130_fd_sc_hd__decap_12
XFILLER_114_68 VGND VPWR sky130_fd_sc_hd__decap_12
XANTENNA__0709__A _0501_/X VGND VPWR sky130_fd_sc_hd__diode_2
XANTENNA__0856__B1 _0855_/X VGND VPWR sky130_fd_sc_hd__diode_2
XFILLER_130_56 VGND VPWR sky130_fd_sc_hd__decap_12
XFILLER_90_27 VGND VPWR sky130_fd_sc_hd__decap_4
XPHY_703 VGND VPWR sky130_fd_sc_hd__tapvpwrvgnd_1
XPHY_714 VGND VPWR sky130_fd_sc_hd__tapvpwrvgnd_1
XPHY_725 VGND VPWR sky130_fd_sc_hd__tapvpwrvgnd_1
XPHY_736 VGND VPWR sky130_fd_sc_hd__tapvpwrvgnd_1
XPHY_747 VGND VPWR sky130_fd_sc_hd__tapvpwrvgnd_1
XPHY_758 VGND VPWR sky130_fd_sc_hd__tapvpwrvgnd_1
XPHY_769 VGND VPWR sky130_fd_sc_hd__tapvpwrvgnd_1
XFILLER_7_406 VGND VPWR sky130_fd_sc_hd__fill_1
XFILLER_128_3 VGND VPWR sky130_fd_sc_hd__decap_12
XANTENNA__1033__B1 _1029_/Y VGND VPWR sky130_fd_sc_hd__diode_2
XFILLER_23_98 VGND VPWR sky130_fd_sc_hd__decap_12
XFILLER_109_367 VGND VPWR sky130_fd_sc_hd__decap_12
XFILLER_124_337 VGND VPWR sky130_fd_sc_hd__decap_12
XFILLER_2_166 VGND VPWR sky130_fd_sc_hd__decap_12
XFILLER_48_62 VGND VPWR sky130_fd_sc_hd__fill_1
XFILLER_48_84 VGND VPWR sky130_fd_sc_hd__fill_2
XFILLER_65_118 VGND VPWR sky130_fd_sc_hd__fill_2
XANTENNA__0619__A _0619_/A VGND VPWR sky130_fd_sc_hd__diode_2
XANTENNA__0847__B1 _0844_/X VGND VPWR sky130_fd_sc_hd__diode_2
XFILLER_46_398 VGND VPWR sky130_fd_sc_hd__decap_8
XANTENNA__1160__D _1223_/Q VGND VPWR sky130_fd_sc_hd__diode_2
XFILLER_73_184 VGND VPWR sky130_fd_sc_hd__decap_8
XFILLER_14_251 VGND VPWR sky130_fd_sc_hd__decap_12
XFILLER_61_379 VGND VPWR sky130_fd_sc_hd__decap_12
X_0821_ _0663_/A _1114_/Q _1146_/Q _0779_/X d_fabric_out[31] VGND VPWR sky130_fd_sc_hd__o22a_4
XFILLER_80_93 VGND VPWR sky130_fd_sc_hd__decap_12
X_0752_ _0532_/X _0751_/X _0719_/X _0752_/X VGND VPWR sky130_fd_sc_hd__o21a_4
X_0683_ _0509_/B _0683_/B _0681_/X _0683_/D _0684_/D VGND VPWR sky130_fd_sc_hd__or4_4
XFILLER_43_3 VGND VPWR sky130_fd_sc_hd__decap_12
XFILLER_96_210 VGND VPWR sky130_fd_sc_hd__fill_2
XFILLER_96_298 VGND VPWR sky130_fd_sc_hd__fill_1
XANTENNA__0529__A _0528_/X VGND VPWR sky130_fd_sc_hd__diode_2
XANTENNA__1117__CLK _1187_/CLK VGND VPWR sky130_fd_sc_hd__diode_2
X_1166_ d_fabric_in[0] d_sram_in[0] _1175_/CLK VGND VPWR sky130_fd_sc_hd__dfxtp_4
XFILLER_37_354 VGND VPWR sky130_fd_sc_hd__decap_12
XFILLER_52_302 VGND VPWR sky130_fd_sc_hd__decap_12
X_1097_ _0795_/X _1097_/Q _1142_/CLK VGND VPWR sky130_fd_sc_hd__dfxtp_4
XFILLER_100_15 VGND VPWR sky130_fd_sc_hd__decap_12
XFILLER_20_276 VGND VPWR sky130_fd_sc_hd__decap_12
XFILLER_133_123 VGND VPWR sky130_fd_sc_hd__decap_12
XFILLER_106_337 VGND VPWR sky130_fd_sc_hd__decap_12
XFILLER_106_326 VGND VPWR sky130_fd_sc_hd__decap_8
XFILLER_121_318 VGND VPWR sky130_fd_sc_hd__decap_12
XFILLER_85_27 VGND VPWR sky130_fd_sc_hd__decap_12
XFILLER_47_107 VGND VPWR sky130_fd_sc_hd__fill_2
XFILLER_47_118 VGND VPWR sky130_fd_sc_hd__fill_2
XFILLER_87_298 VGND VPWR sky130_fd_sc_hd__fill_2
XFILLER_18_32 VGND VPWR sky130_fd_sc_hd__decap_12
XFILLER_47_129 VGND VPWR sky130_fd_sc_hd__fill_2
XFILLER_28_398 VGND VPWR sky130_fd_sc_hd__decap_8
XFILLER_55_184 VGND VPWR sky130_fd_sc_hd__decap_3
XPHY_500 VGND VPWR sky130_fd_sc_hd__tapvpwrvgnd_1
XFILLER_70_154 VGND VPWR sky130_fd_sc_hd__decap_6
XPHY_511 VGND VPWR sky130_fd_sc_hd__tapvpwrvgnd_1
XPHY_522 VGND VPWR sky130_fd_sc_hd__tapvpwrvgnd_1
XPHY_533 VGND VPWR sky130_fd_sc_hd__tapvpwrvgnd_1
XPHY_544 VGND VPWR sky130_fd_sc_hd__tapvpwrvgnd_1
XFILLER_43_379 VGND VPWR sky130_fd_sc_hd__decap_12
XPHY_1132 VGND VPWR sky130_fd_sc_hd__tapvpwrvgnd_1