* NGSPICE file created from sram_ifc.ext - technology: sky130A

* Black-box entry subcircuit for sky130_fd_sc_hd__fill_1 abstract view
.subckt sky130_fd_sc_hd__fill_1 VGND VPWR
.ends

* Black-box entry subcircuit for sky130_fd_sc_hd__decap_4 abstract view
.subckt sky130_fd_sc_hd__decap_4 VGND VPWR
.ends

* Black-box entry subcircuit for sky130_fd_sc_hd__fill_2 abstract view
.subckt sky130_fd_sc_hd__fill_2 VGND VPWR
.ends

* Black-box entry subcircuit for sky130_fd_sc_hd__diode_2 abstract view
.subckt sky130_fd_sc_hd__diode_2 DIODE VGND VPWR
.ends

* Black-box entry subcircuit for sky130_fd_sc_hd__decap_8 abstract view
.subckt sky130_fd_sc_hd__decap_8 VGND VPWR
.ends

* Black-box entry subcircuit for sky130_fd_sc_hd__decap_12 abstract view
.subckt sky130_fd_sc_hd__decap_12 VGND VPWR
.ends

* Black-box entry subcircuit for sky130_fd_sc_hd__buf_1 abstract view
.subckt sky130_fd_sc_hd__buf_1 A X VGND VPWR
.ends

* Black-box entry subcircuit for sky130_fd_sc_hd__decap_3 abstract view
.subckt sky130_fd_sc_hd__decap_3 VGND VPWR
.ends

* Black-box entry subcircuit for sky130_fd_sc_hd__a21o_4 abstract view
.subckt sky130_fd_sc_hd__a21o_4 A1 A2 B1 X VGND VPWR
.ends

* Black-box entry subcircuit for sky130_fd_sc_hd__dfxtp_4 abstract view
.subckt sky130_fd_sc_hd__dfxtp_4 D Q CLK VGND VPWR
.ends

* Black-box entry subcircuit for sky130_fd_sc_hd__clkbuf_1 abstract view
.subckt sky130_fd_sc_hd__clkbuf_1 A X VGND VPWR
.ends

* Black-box entry subcircuit for sky130_fd_sc_hd__and4_4 abstract view
.subckt sky130_fd_sc_hd__and4_4 A B C D X VGND VPWR
.ends

* Black-box entry subcircuit for sky130_fd_sc_hd__decap_6 abstract view
.subckt sky130_fd_sc_hd__decap_6 VGND VPWR
.ends

* Black-box entry subcircuit for sky130_fd_sc_hd__o21a_4 abstract view
.subckt sky130_fd_sc_hd__o21a_4 A1 A2 B1 X VGND VPWR
.ends

* Black-box entry subcircuit for sky130_fd_sc_hd__nor4_4 abstract view
.subckt sky130_fd_sc_hd__nor4_4 A B C D Y VGND VPWR
.ends

* Black-box entry subcircuit for sky130_fd_sc_hd__tapvpwrvgnd_1 abstract view
.subckt sky130_fd_sc_hd__tapvpwrvgnd_1 VGND VPWR
.ends

* Black-box entry subcircuit for sky130_fd_sc_hd__or4_4 abstract view
.subckt sky130_fd_sc_hd__or4_4 A B C D X VGND VPWR
.ends

* Black-box entry subcircuit for sky130_fd_sc_hd__o22a_4 abstract view
.subckt sky130_fd_sc_hd__o22a_4 A1 A2 B1 B2 X VGND VPWR
.ends

* Black-box entry subcircuit for sky130_fd_sc_hd__a211o_4 abstract view
.subckt sky130_fd_sc_hd__a211o_4 A1 A2 B1 C1 X VGND VPWR
.ends

* Black-box entry subcircuit for sky130_fd_sc_hd__a21bo_4 abstract view
.subckt sky130_fd_sc_hd__a21bo_4 A1 A2 B1_N X VGND VPWR
.ends

* Black-box entry subcircuit for sky130_fd_sc_hd__o21ai_4 abstract view
.subckt sky130_fd_sc_hd__o21ai_4 A1 A2 B1 Y VGND VPWR
.ends

* Black-box entry subcircuit for sky130_fd_sc_hd__a32o_4 abstract view
.subckt sky130_fd_sc_hd__a32o_4 A1 A2 A3 B1 B2 X VGND VPWR
.ends

* Black-box entry subcircuit for sky130_fd_sc_hd__or3_4 abstract view
.subckt sky130_fd_sc_hd__or3_4 A B C X VGND VPWR
.ends

* Black-box entry subcircuit for sky130_fd_sc_hd__inv_8 abstract view
.subckt sky130_fd_sc_hd__inv_8 A Y VGND VPWR
.ends

* Black-box entry subcircuit for sky130_fd_sc_hd__o41a_4 abstract view
.subckt sky130_fd_sc_hd__o41a_4 A1 A2 A3 A4 B1 X VGND VPWR
.ends

* Black-box entry subcircuit for sky130_fd_sc_hd__nor2_4 abstract view
.subckt sky130_fd_sc_hd__nor2_4 A B Y VGND VPWR
.ends

* Black-box entry subcircuit for sky130_fd_sc_hd__and2_4 abstract view
.subckt sky130_fd_sc_hd__and2_4 A B X VGND VPWR
.ends

* Black-box entry subcircuit for sky130_fd_sc_hd__a2111oi_4 abstract view
.subckt sky130_fd_sc_hd__a2111oi_4 A1 A2 B1 C1 D1 Y VGND VPWR
.ends

* Black-box entry subcircuit for sky130_fd_sc_hd__a21oi_4 abstract view
.subckt sky130_fd_sc_hd__a21oi_4 A1 A2 B1 Y VGND VPWR
.ends

* Black-box entry subcircuit for sky130_fd_sc_hd__a2bb2o_4 abstract view
.subckt sky130_fd_sc_hd__a2bb2o_4 A1_N A2_N B1 B2 X VGND VPWR
.ends

* Black-box entry subcircuit for sky130_fd_sc_hd__nor3_4 abstract view
.subckt sky130_fd_sc_hd__nor3_4 A B C Y VGND VPWR
.ends

* Black-box entry subcircuit for sky130_fd_sc_hd__or2_4 abstract view
.subckt sky130_fd_sc_hd__or2_4 A B X VGND VPWR
.ends

* Black-box entry subcircuit for sky130_fd_sc_hd__clkbuf_16 abstract view
.subckt sky130_fd_sc_hd__clkbuf_16 A X VGND VPWR
.ends

* Black-box entry subcircuit for sky130_fd_sc_hd__a22oi_4 abstract view
.subckt sky130_fd_sc_hd__a22oi_4 A1 A2 B1 B2 Y VGND VPWR
.ends

* Black-box entry subcircuit for sky130_fd_sc_hd__nand3_4 abstract view
.subckt sky130_fd_sc_hd__nand3_4 A B C Y VGND VPWR
.ends

* Black-box entry subcircuit for sky130_fd_sc_hd__and3_4 abstract view
.subckt sky130_fd_sc_hd__and3_4 A B C X VGND VPWR
.ends

* Black-box entry subcircuit for sky130_fd_sc_hd__a32oi_4 abstract view
.subckt sky130_fd_sc_hd__a32oi_4 A1 A2 A3 B1 B2 Y VGND VPWR
.ends

* Black-box entry subcircuit for sky130_fd_sc_hd__nand4_4 abstract view
.subckt sky130_fd_sc_hd__nand4_4 A B C D Y VGND VPWR
.ends

.subckt sram_ifc addr_r[0] addr_r[10] addr_r[11] addr_r[12] addr_r[13] addr_r[1] addr_r[2]
+ addr_r[3] addr_r[4] addr_r[5] addr_r[6] addr_r[7] addr_r[8] addr_r[9] addr_w[0]
+ addr_w[10] addr_w[11] addr_w[12] addr_w[13] addr_w[1] addr_w[2] addr_w[3] addr_w[4]
+ addr_w[5] addr_w[6] addr_w[7] addr_w[8] addr_w[9] baseaddr_r_sync[0] baseaddr_r_sync[1]
+ baseaddr_r_sync[2] baseaddr_r_sync[3] baseaddr_r_sync[4] baseaddr_r_sync[5] baseaddr_r_sync[6]
+ baseaddr_r_sync[7] baseaddr_r_sync[8] baseaddr_w_sync[0] baseaddr_w_sync[1] baseaddr_w_sync[2]
+ baseaddr_w_sync[3] baseaddr_w_sync[4] baseaddr_w_sync[5] baseaddr_w_sync[6] baseaddr_w_sync[7]
+ baseaddr_w_sync[8] clk conf[0] conf[1] conf[2] csb csb0_sync csb1_sync d_fabric_in[0]
+ d_fabric_in[10] d_fabric_in[11] d_fabric_in[12] d_fabric_in[13] d_fabric_in[14]
+ d_fabric_in[15] d_fabric_in[16] d_fabric_in[17] d_fabric_in[18] d_fabric_in[19]
+ d_fabric_in[1] d_fabric_in[20] d_fabric_in[21] d_fabric_in[22] d_fabric_in[23] d_fabric_in[24]
+ d_fabric_in[25] d_fabric_in[26] d_fabric_in[27] d_fabric_in[28] d_fabric_in[29]
+ d_fabric_in[2] d_fabric_in[30] d_fabric_in[31] d_fabric_in[3] d_fabric_in[4] d_fabric_in[5]
+ d_fabric_in[6] d_fabric_in[7] d_fabric_in[8] d_fabric_in[9] d_fabric_out[0] d_fabric_out[10]
+ d_fabric_out[11] d_fabric_out[12] d_fabric_out[13] d_fabric_out[14] d_fabric_out[15]
+ d_fabric_out[16] d_fabric_out[17] d_fabric_out[18] d_fabric_out[19] d_fabric_out[1]
+ d_fabric_out[20] d_fabric_out[21] d_fabric_out[22] d_fabric_out[23] d_fabric_out[24]
+ d_fabric_out[25] d_fabric_out[26] d_fabric_out[27] d_fabric_out[28] d_fabric_out[29]
+ d_fabric_out[2] d_fabric_out[30] d_fabric_out[31] d_fabric_out[3] d_fabric_out[4]
+ d_fabric_out[5] d_fabric_out[6] d_fabric_out[7] d_fabric_out[8] d_fabric_out[9]
+ d_sram_in[0] d_sram_in[10] d_sram_in[11] d_sram_in[12] d_sram_in[13] d_sram_in[14]
+ d_sram_in[15] d_sram_in[16] d_sram_in[17] d_sram_in[18] d_sram_in[19] d_sram_in[1]
+ d_sram_in[20] d_sram_in[21] d_sram_in[22] d_sram_in[23] d_sram_in[24] d_sram_in[25]
+ d_sram_in[26] d_sram_in[27] d_sram_in[28] d_sram_in[29] d_sram_in[2] d_sram_in[30]
+ d_sram_in[31] d_sram_in[3] d_sram_in[4] d_sram_in[5] d_sram_in[6] d_sram_in[7] d_sram_in[8]
+ d_sram_in[9] d_sram_out[0] d_sram_out[10] d_sram_out[11] d_sram_out[12] d_sram_out[13]
+ d_sram_out[14] d_sram_out[15] d_sram_out[16] d_sram_out[17] d_sram_out[18] d_sram_out[19]
+ d_sram_out[1] d_sram_out[20] d_sram_out[21] d_sram_out[22] d_sram_out[23] d_sram_out[24]
+ d_sram_out[25] d_sram_out[26] d_sram_out[27] d_sram_out[28] d_sram_out[29] d_sram_out[2]
+ d_sram_out[30] d_sram_out[31] d_sram_out[3] d_sram_out[4] d_sram_out[5] d_sram_out[6]
+ d_sram_out[7] d_sram_out[8] d_sram_out[9] out_reg reb w_mask[0] w_mask[10] w_mask[11]
+ w_mask[12] w_mask[13] w_mask[14] w_mask[15] w_mask[16] w_mask[17] w_mask[18] w_mask[19]
+ w_mask[1] w_mask[20] w_mask[21] w_mask[22] w_mask[23] w_mask[24] w_mask[25] w_mask[26]
+ w_mask[27] w_mask[28] w_mask[29] w_mask[2] w_mask[30] w_mask[31] w_mask[3] w_mask[4]
+ w_mask[5] w_mask[6] w_mask[7] w_mask[8] w_mask[9] web web0_sync VPWR VGND
XFILLER_39_233 VGND VPWR sky130_fd_sc_hd__fill_1
XFILLER_54_247 VGND VPWR sky130_fd_sc_hd__decap_4
XFILLER_22_188 VGND VPWR sky130_fd_sc_hd__fill_2
XANTENNA__0703__A _0703_/A VGND VPWR sky130_fd_sc_hd__diode_2
XFILLER_45_258 VGND VPWR sky130_fd_sc_hd__fill_2
XFILLER_26_52 VGND VPWR sky130_fd_sc_hd__fill_2
XFILLER_26_63 VGND VPWR sky130_fd_sc_hd__fill_2
XFILLER_26_85 VGND VPWR sky130_fd_sc_hd__fill_1
XFILLER_60_239 VGND VPWR sky130_fd_sc_hd__decap_8
XFILLER_13_188 VGND VPWR sky130_fd_sc_hd__decap_4
XANTENNA__0613__A _0697_/A VGND VPWR sky130_fd_sc_hd__diode_2
XFILLER_5_354 VGND VPWR sky130_fd_sc_hd__decap_12
XANTENNA__1104__CLK _1104_/CLK VGND VPWR sky130_fd_sc_hd__diode_2
XANTENNA__0708__B1 _0707_/X VGND VPWR sky130_fd_sc_hd__diode_2
XANTENNA__0765__A2_N _0528_/X VGND VPWR sky130_fd_sc_hd__diode_2
X_0985_ _0984_/X _0985_/X VGND VPWR sky130_fd_sc_hd__buf_1
XANTENNA__0523__A _0523_/A VGND VPWR sky130_fd_sc_hd__diode_2
XFILLER_35_291 VGND VPWR sky130_fd_sc_hd__fill_1
XFILLER_10_136 VGND VPWR sky130_fd_sc_hd__fill_2
XANTENNA__0650__A2 _0623_/X VGND VPWR sky130_fd_sc_hd__diode_2
XANTENNA__1127__CLK _1163_/CLK VGND VPWR sky130_fd_sc_hd__diode_2
XFILLER_12_32 VGND VPWR sky130_fd_sc_hd__decap_12
XFILLER_12_98 VGND VPWR sky130_fd_sc_hd__fill_2
XFILLER_2_368 VGND VPWR sky130_fd_sc_hd__decap_8
XFILLER_2_379 VGND VPWR sky130_fd_sc_hd__decap_12
XFILLER_18_225 VGND VPWR sky130_fd_sc_hd__fill_2
XFILLER_58_361 VGND VPWR sky130_fd_sc_hd__decap_12
XFILLER_37_62 VGND VPWR sky130_fd_sc_hd__decap_3
XANTENNA__0608__A _0634_/A VGND VPWR sky130_fd_sc_hd__diode_2
X_0770_ _0762_/X _1089_/D _0769_/X d_fabric_out[6] VGND VPWR sky130_fd_sc_hd__a21o_4
XFILLER_5_184 VGND VPWR sky130_fd_sc_hd__decap_12
XFILLER_64_353 VGND VPWR sky130_fd_sc_hd__fill_2
X_1184_ d_fabric_in[18] _1184_/Q _1184_/CLK VGND VPWR sky130_fd_sc_hd__dfxtp_4
XANTENNA__0518__A _0587_/A VGND VPWR sky130_fd_sc_hd__diode_2
XFILLER_24_206 VGND VPWR sky130_fd_sc_hd__fill_2
XFILLER_24_228 VGND VPWR sky130_fd_sc_hd__fill_2
XFILLER_24_239 VGND VPWR sky130_fd_sc_hd__fill_2
XANTENNA__0632__A2 _0627_/Y VGND VPWR sky130_fd_sc_hd__diode_2
X_0968_ _0943_/X _0968_/X VGND VPWR sky130_fd_sc_hd__buf_1
Xclkbuf_4_12_0_clk clkbuf_3_6_0_clk/X _1196_/CLK VGND VPWR sky130_fd_sc_hd__clkbuf_1
X_0899_ _0899_/A _0899_/B _0903_/C _1177_/Q _0899_/X VGND VPWR sky130_fd_sc_hd__and4_4
XANTENNA__0700__B _0694_/B VGND VPWR sky130_fd_sc_hd__diode_2
XFILLER_59_114 VGND VPWR sky130_fd_sc_hd__fill_1
XANTENNA__0871__A2 _0833_/X VGND VPWR sky130_fd_sc_hd__diode_2
XFILLER_23_283 VGND VPWR sky130_fd_sc_hd__fill_2
XFILLER_23_294 VGND VPWR sky130_fd_sc_hd__fill_1
XANTENNA__0623__A2 _0620_/X VGND VPWR sky130_fd_sc_hd__diode_2
XFILLER_2_198 VGND VPWR sky130_fd_sc_hd__decap_6
XANTENNA__1144__D d_sram_out[29] VGND VPWR sky130_fd_sc_hd__diode_2
XFILLER_48_50 VGND VPWR sky130_fd_sc_hd__decap_3
XANTENNA__0847__C1 _0846_/X VGND VPWR sky130_fd_sc_hd__diode_2
XFILLER_0_79 VGND VPWR sky130_fd_sc_hd__fill_1
XANTENNA__0862__A2 _0839_/X VGND VPWR sky130_fd_sc_hd__diode_2
XFILLER_61_367 VGND VPWR sky130_fd_sc_hd__decap_8
XFILLER_14_261 VGND VPWR sky130_fd_sc_hd__decap_3
X_0822_ d_sram_in[0] _0880_/A VGND VPWR sky130_fd_sc_hd__buf_1
X_0753_ _0540_/D _0495_/X _0709_/X _0753_/X VGND VPWR sky130_fd_sc_hd__o21a_4
Xclkbuf_3_1_0_clk clkbuf_3_1_0_clk/A clkbuf_4_2_0_clk/A VGND VPWR sky130_fd_sc_hd__clkbuf_1
XANTENNA__0801__A _0665_/B VGND VPWR sky130_fd_sc_hd__diode_2
X_0684_ _0684_/A _0676_/X _0684_/C _0684_/D _0684_/Y VGND VPWR sky130_fd_sc_hd__nor4_4
XFILLER_29_309 VGND VPWR sky130_fd_sc_hd__fill_2
X_1167_ d_fabric_in[1] _0827_/A _1152_/CLK VGND VPWR sky130_fd_sc_hd__dfxtp_4
XFILLER_44_19 VGND VPWR sky130_fd_sc_hd__decap_4
XFILLER_52_312 VGND VPWR sky130_fd_sc_hd__fill_2
XANTENNA__0853__A2 _0859_/B VGND VPWR sky130_fd_sc_hd__diode_2
X_1098_ _1098_/D _1098_/Q _1155_/CLK VGND VPWR sky130_fd_sc_hd__dfxtp_4
XANTENNA__1030__A2 _1025_/X VGND VPWR sky130_fd_sc_hd__diode_2
XANTENNA__0711__A _0497_/X VGND VPWR sky130_fd_sc_hd__diode_2
XFILLER_18_53 VGND VPWR sky130_fd_sc_hd__fill_2
XFILLER_28_320 VGND VPWR sky130_fd_sc_hd__fill_1
XFILLER_28_375 VGND VPWR sky130_fd_sc_hd__decap_12
XFILLER_43_301 VGND VPWR sky130_fd_sc_hd__fill_2
XFILLER_43_356 VGND VPWR sky130_fd_sc_hd__decap_6
XFILLER_43_367 VGND VPWR sky130_fd_sc_hd__decap_8
XPHY_510 VGND VPWR sky130_fd_sc_hd__tapvpwrvgnd_1
XPHY_521 VGND VPWR sky130_fd_sc_hd__tapvpwrvgnd_1
XPHY_532 VGND VPWR sky130_fd_sc_hd__tapvpwrvgnd_1
XPHY_543 VGND VPWR sky130_fd_sc_hd__tapvpwrvgnd_1
XPHY_576 VGND VPWR sky130_fd_sc_hd__tapvpwrvgnd_1
XPHY_587 VGND VPWR sky130_fd_sc_hd__tapvpwrvgnd_1
XPHY_565 VGND VPWR sky130_fd_sc_hd__tapvpwrvgnd_1
XPHY_554 VGND VPWR sky130_fd_sc_hd__tapvpwrvgnd_1
XFILLER_11_231 VGND VPWR sky130_fd_sc_hd__decap_12
XFILLER_34_74 VGND VPWR sky130_fd_sc_hd__fill_2
XFILLER_34_85 VGND VPWR sky130_fd_sc_hd__fill_2
XFILLER_7_257 VGND VPWR sky130_fd_sc_hd__decap_12
XFILLER_7_235 VGND VPWR sky130_fd_sc_hd__decap_8
XANTENNA__1139__D d_sram_out[24] VGND VPWR sky130_fd_sc_hd__diode_2
XANTENNA__0978__D _0982_/D VGND VPWR sky130_fd_sc_hd__diode_2
XANTENNA__0780__A1 _0779_/X VGND VPWR sky130_fd_sc_hd__diode_2
XANTENNA__0780__B2 _1091_/Q VGND VPWR sky130_fd_sc_hd__diode_2
XFILLER_22_7 VGND VPWR sky130_fd_sc_hd__fill_2
XFILLER_59_82 VGND VPWR sky130_fd_sc_hd__decap_12
XANTENNA__0994__C _0999_/A VGND VPWR sky130_fd_sc_hd__diode_2
X_1021_ _0973_/A _1021_/B _1021_/C _1021_/D _1021_/X VGND VPWR sky130_fd_sc_hd__or4_4
XFILLER_34_334 VGND VPWR sky130_fd_sc_hd__fill_2
XANTENNA__0930__B1_N _0873_/X VGND VPWR sky130_fd_sc_hd__diode_2
X_0805_ _0799_/X _1102_/Q _0695_/X _0801_/X d_fabric_out[19] VGND VPWR sky130_fd_sc_hd__o22a_4
XANTENNA__0531__A _0530_/X VGND VPWR sky130_fd_sc_hd__diode_2
XANTENNA__1012__A2 _0983_/X VGND VPWR sky130_fd_sc_hd__diode_2
X_0736_ _0668_/X _1126_/Q _0501_/X _0735_/X _0736_/X VGND VPWR sky130_fd_sc_hd__a211o_4
X_0667_ _0493_/X _0750_/A VGND VPWR sky130_fd_sc_hd__buf_1
XANTENNA__1065__C _0878_/Y VGND VPWR sky130_fd_sc_hd__diode_2
XFILLER_39_19 VGND VPWR sky130_fd_sc_hd__fill_1
X_0598_ _0579_/C _0701_/B VGND VPWR sky130_fd_sc_hd__buf_1
XFILLER_29_128 VGND VPWR sky130_fd_sc_hd__fill_2
X_1219_ addr_r[7] baseaddr_r_sync[7] _1108_/CLK VGND VPWR sky130_fd_sc_hd__dfxtp_4
XANTENNA__1079__A2 _1040_/X VGND VPWR sky130_fd_sc_hd__diode_2
XFILLER_44_109 VGND VPWR sky130_fd_sc_hd__fill_2
XFILLER_25_301 VGND VPWR sky130_fd_sc_hd__fill_2
XANTENNA__0826__A2 _0845_/B VGND VPWR sky130_fd_sc_hd__diode_2
XFILLER_52_120 VGND VPWR sky130_fd_sc_hd__decap_3
XFILLER_40_348 VGND VPWR sky130_fd_sc_hd__decap_12
XFILLER_20_32 VGND VPWR sky130_fd_sc_hd__fill_2
XFILLER_4_227 VGND VPWR sky130_fd_sc_hd__decap_12
XFILLER_20_65 VGND VPWR sky130_fd_sc_hd__decap_4
XFILLER_0_400 VGND VPWR sky130_fd_sc_hd__decap_3
XFILLER_45_40 VGND VPWR sky130_fd_sc_hd__decap_4
XANTENNA__0817__A2 _1110_/Q VGND VPWR sky130_fd_sc_hd__diode_2
XFILLER_43_131 VGND VPWR sky130_fd_sc_hd__fill_2
XFILLER_45_73 VGND VPWR sky130_fd_sc_hd__fill_2
XANTENNA__0616__A _1151_/Q VGND VPWR sky130_fd_sc_hd__diode_2
XFILLER_31_315 VGND VPWR sky130_fd_sc_hd__fill_2
XFILLER_45_95 VGND VPWR sky130_fd_sc_hd__decap_3
XPHY_340 VGND VPWR sky130_fd_sc_hd__tapvpwrvgnd_1
XPHY_351 VGND VPWR sky130_fd_sc_hd__tapvpwrvgnd_1
XPHY_362 VGND VPWR sky130_fd_sc_hd__tapvpwrvgnd_1
XPHY_373 VGND VPWR sky130_fd_sc_hd__tapvpwrvgnd_1
XPHY_384 VGND VPWR sky130_fd_sc_hd__tapvpwrvgnd_1
XPHY_395 VGND VPWR sky130_fd_sc_hd__tapvpwrvgnd_1
XFILLER_6_56 VGND VPWR sky130_fd_sc_hd__decap_12
X_0521_ _0676_/A _0721_/B _0721_/C _1127_/Q _0521_/X VGND VPWR sky130_fd_sc_hd__and4_4
XANTENNA__0753__A1 _0540_/D VGND VPWR sky130_fd_sc_hd__diode_2
XFILLER_66_212 VGND VPWR sky130_fd_sc_hd__fill_2
XFILLER_13_3 VGND VPWR sky130_fd_sc_hd__decap_4
XFILLER_66_256 VGND VPWR sky130_fd_sc_hd__decap_12
X_1004_ _1031_/D _1021_/D VGND VPWR sky130_fd_sc_hd__buf_1
XANTENNA__0526__A _0526_/A VGND VPWR sky130_fd_sc_hd__diode_2
XFILLER_22_348 VGND VPWR sky130_fd_sc_hd__decap_3
XANTENNA__1160__CLK _1152_/CLK VGND VPWR sky130_fd_sc_hd__diode_2
XANTENNA__0899__C _0903_/C VGND VPWR sky130_fd_sc_hd__diode_2
X_0719_ _0651_/Y _0719_/X VGND VPWR sky130_fd_sc_hd__buf_1
XFILLER_57_234 VGND VPWR sky130_fd_sc_hd__decap_8
XFILLER_57_245 VGND VPWR sky130_fd_sc_hd__fill_2
XFILLER_13_304 VGND VPWR sky130_fd_sc_hd__fill_1
XFILLER_25_197 VGND VPWR sky130_fd_sc_hd__fill_2
XFILLER_40_134 VGND VPWR sky130_fd_sc_hd__fill_2
XFILLER_40_145 VGND VPWR sky130_fd_sc_hd__fill_2
XFILLER_40_178 VGND VPWR sky130_fd_sc_hd__fill_1
XFILLER_31_53 VGND VPWR sky130_fd_sc_hd__fill_2
XFILLER_31_75 VGND VPWR sky130_fd_sc_hd__fill_2
XANTENNA__0602__C _0633_/B VGND VPWR sky130_fd_sc_hd__diode_2
XANTENNA__0735__B2 _0655_/B VGND VPWR sky130_fd_sc_hd__diode_2
XANTENNA__0735__A1 _0676_/A VGND VPWR sky130_fd_sc_hd__diode_2
XFILLER_63_215 VGND VPWR sky130_fd_sc_hd__decap_12
XANTENNA__1152__D _1160_/Q VGND VPWR sky130_fd_sc_hd__diode_2
XFILLER_48_289 VGND VPWR sky130_fd_sc_hd__decap_3
XFILLER_56_72 VGND VPWR sky130_fd_sc_hd__decap_12
XANTENNA__0991__D _0982_/D VGND VPWR sky130_fd_sc_hd__diode_2
XFILLER_31_123 VGND VPWR sky130_fd_sc_hd__fill_2
XFILLER_31_134 VGND VPWR sky130_fd_sc_hd__decap_4
XPHY_170 VGND VPWR sky130_fd_sc_hd__tapvpwrvgnd_1
XANTENNA__0671__B1 _0487_/X VGND VPWR sky130_fd_sc_hd__diode_2
XANTENNA__1183__CLK _1191_/CLK VGND VPWR sky130_fd_sc_hd__diode_2
XPHY_192 VGND VPWR sky130_fd_sc_hd__tapvpwrvgnd_1
XPHY_181 VGND VPWR sky130_fd_sc_hd__tapvpwrvgnd_1
XFILLER_8_385 VGND VPWR sky130_fd_sc_hd__decap_12
X_0504_ _1152_/Q _0584_/A VGND VPWR sky130_fd_sc_hd__buf_1
XFILLER_39_201 VGND VPWR sky130_fd_sc_hd__decap_4
XFILLER_39_245 VGND VPWR sky130_fd_sc_hd__decap_12
XFILLER_39_267 VGND VPWR sky130_fd_sc_hd__fill_2
XFILLER_54_215 VGND VPWR sky130_fd_sc_hd__decap_12
XANTENNA__0703__B _0700_/X VGND VPWR sky130_fd_sc_hd__diode_2
XFILLER_45_237 VGND VPWR sky130_fd_sc_hd__decap_4
XFILLER_13_123 VGND VPWR sky130_fd_sc_hd__fill_2
XFILLER_26_97 VGND VPWR sky130_fd_sc_hd__fill_2
XFILLER_53_292 VGND VPWR sky130_fd_sc_hd__fill_2
XFILLER_9_127 VGND VPWR sky130_fd_sc_hd__fill_1
XANTENNA__0613__B _0701_/B VGND VPWR sky130_fd_sc_hd__diode_2
XANTENNA__0708__A1 _0705_/X VGND VPWR sky130_fd_sc_hd__diode_2
XANTENNA__1147__D _1155_/Q VGND VPWR sky130_fd_sc_hd__diode_2
XFILLER_36_215 VGND VPWR sky130_fd_sc_hd__decap_3
XANTENNA__0892__B1 _0891_/X VGND VPWR sky130_fd_sc_hd__diode_2
XFILLER_51_218 VGND VPWR sky130_fd_sc_hd__fill_2
X_0984_ _0843_/A _0984_/X VGND VPWR sky130_fd_sc_hd__buf_1
XFILLER_67_373 VGND VPWR sky130_fd_sc_hd__decap_12
XFILLER_27_259 VGND VPWR sky130_fd_sc_hd__decap_4
XFILLER_42_229 VGND VPWR sky130_fd_sc_hd__decap_12
XANTENNA__0714__A _0714_/A VGND VPWR sky130_fd_sc_hd__diode_2
XFILLER_50_273 VGND VPWR sky130_fd_sc_hd__fill_2
XFILLER_50_284 VGND VPWR sky130_fd_sc_hd__fill_2
XFILLER_12_11 VGND VPWR sky130_fd_sc_hd__decap_12
XFILLER_10_148 VGND VPWR sky130_fd_sc_hd__decap_3
XFILLER_12_44 VGND VPWR sky130_fd_sc_hd__decap_8
XANTENNA__0938__A1 _1196_/Q VGND VPWR sky130_fd_sc_hd__diode_2
XFILLER_12_88 VGND VPWR sky130_fd_sc_hd__decap_4
XANTENNA__1060__B1 _1057_/X VGND VPWR sky130_fd_sc_hd__diode_2
XFILLER_18_204 VGND VPWR sky130_fd_sc_hd__decap_4
XFILLER_37_30 VGND VPWR sky130_fd_sc_hd__fill_2
XFILLER_58_373 VGND VPWR sky130_fd_sc_hd__decap_4
XFILLER_37_52 VGND VPWR sky130_fd_sc_hd__decap_4
XANTENNA__0608__B _0608_/B VGND VPWR sky130_fd_sc_hd__diode_2
XANTENNA__0874__B1 _0873_/X VGND VPWR sky130_fd_sc_hd__diode_2
XFILLER_53_62 VGND VPWR sky130_fd_sc_hd__decap_12
XANTENNA__0624__A _0566_/X VGND VPWR sky130_fd_sc_hd__diode_2
XANTENNA__0929__A1 _1188_/Q VGND VPWR sky130_fd_sc_hd__diode_2
XANTENNA__1051__B1 _1049_/X VGND VPWR sky130_fd_sc_hd__diode_2
XANTENNA__1221__CLK _1163_/CLK VGND VPWR sky130_fd_sc_hd__diode_2
XFILLER_5_196 VGND VPWR sky130_fd_sc_hd__decap_12
XFILLER_49_351 VGND VPWR sky130_fd_sc_hd__fill_2
X_1183_ d_fabric_in[17] _1183_/Q _1191_/CLK VGND VPWR sky130_fd_sc_hd__dfxtp_4
XANTENNA__0865__B1 _0844_/X VGND VPWR sky130_fd_sc_hd__diode_2
XFILLER_64_398 VGND VPWR sky130_fd_sc_hd__decap_6
XANTENNA__0534__A _0616_/D VGND VPWR sky130_fd_sc_hd__diode_2
XFILLER_32_284 VGND VPWR sky130_fd_sc_hd__decap_3
X_0967_ _0945_/Y _0966_/Y _0946_/X _0960_/X w_mask[1] VGND VPWR sky130_fd_sc_hd__a211o_4
X_0898_ _0895_/D _0877_/X _0897_/Y d_sram_in[10] VGND VPWR sky130_fd_sc_hd__a21bo_4
XANTENNA__0700__C _0717_/B VGND VPWR sky130_fd_sc_hd__diode_2
XANTENNA__0709__A _0501_/X VGND VPWR sky130_fd_sc_hd__diode_2
XFILLER_15_207 VGND VPWR sky130_fd_sc_hd__fill_2
XFILLER_55_365 VGND VPWR sky130_fd_sc_hd__fill_1
XANTENNA__0856__B1 _0855_/X VGND VPWR sky130_fd_sc_hd__diode_2
XFILLER_23_240 VGND VPWR sky130_fd_sc_hd__fill_2
XFILLER_23_262 VGND VPWR sky130_fd_sc_hd__fill_2
XFILLER_23_98 VGND VPWR sky130_fd_sc_hd__decap_4
XANTENNA__1033__B1 _1029_/Y VGND VPWR sky130_fd_sc_hd__diode_2
XFILLER_65_118 VGND VPWR sky130_fd_sc_hd__fill_2
XFILLER_48_84 VGND VPWR sky130_fd_sc_hd__fill_2
XANTENNA__0619__A _0597_/X VGND VPWR sky130_fd_sc_hd__diode_2
XFILLER_46_332 VGND VPWR sky130_fd_sc_hd__decap_4
XFILLER_58_170 VGND VPWR sky130_fd_sc_hd__fill_2
XANTENNA__0847__B1 _0844_/X VGND VPWR sky130_fd_sc_hd__diode_2
XANTENNA__1160__D _1223_/Q VGND VPWR sky130_fd_sc_hd__diode_2
XFILLER_46_398 VGND VPWR sky130_fd_sc_hd__decap_6
XFILLER_9_89 VGND VPWR sky130_fd_sc_hd__fill_1
X_0821_ _0663_/A _1114_/Q _1146_/Q _0779_/X d_fabric_out[31] VGND VPWR sky130_fd_sc_hd__o22a_4
X_0752_ _0532_/X _0751_/X _0719_/X _0752_/X VGND VPWR sky130_fd_sc_hd__o21a_4
X_0683_ _0674_/B _0679_/X _0681_/X _0683_/D _0684_/D VGND VPWR sky130_fd_sc_hd__or4_4
XANTENNA__0529__A _0528_/X VGND VPWR sky130_fd_sc_hd__diode_2
XFILLER_49_170 VGND VPWR sky130_fd_sc_hd__decap_12
XANTENNA__1117__CLK _1130_/CLK VGND VPWR sky130_fd_sc_hd__diode_2
XFILLER_64_151 VGND VPWR sky130_fd_sc_hd__fill_2
X_1166_ d_fabric_in[0] d_sram_in[0] _1188_/CLK VGND VPWR sky130_fd_sc_hd__dfxtp_4
XFILLER_37_343 VGND VPWR sky130_fd_sc_hd__fill_2
XFILLER_37_365 VGND VPWR sky130_fd_sc_hd__fill_1
XFILLER_64_173 VGND VPWR sky130_fd_sc_hd__decap_12
XFILLER_52_302 VGND VPWR sky130_fd_sc_hd__decap_4
X_1097_ _0795_/X _1097_/Q _1207_/CLK VGND VPWR sky130_fd_sc_hd__dfxtp_4
XFILLER_52_379 VGND VPWR sky130_fd_sc_hd__decap_12
XFILLER_20_210 VGND VPWR sky130_fd_sc_hd__fill_2
XFILLER_20_232 VGND VPWR sky130_fd_sc_hd__fill_2
XFILLER_20_254 VGND VPWR sky130_fd_sc_hd__fill_2
XFILLER_20_265 VGND VPWR sky130_fd_sc_hd__decap_4
XFILLER_20_287 VGND VPWR sky130_fd_sc_hd__fill_1
XFILLER_47_118 VGND VPWR sky130_fd_sc_hd__decap_4
XFILLER_18_32 VGND VPWR sky130_fd_sc_hd__fill_1
XFILLER_28_332 VGND VPWR sky130_fd_sc_hd__decap_4
XFILLER_28_354 VGND VPWR sky130_fd_sc_hd__decap_8
XFILLER_55_151 VGND VPWR sky130_fd_sc_hd__fill_2
XFILLER_28_387 VGND VPWR sky130_fd_sc_hd__decap_8
XFILLER_28_398 VGND VPWR sky130_fd_sc_hd__decap_6
XFILLER_43_313 VGND VPWR sky130_fd_sc_hd__fill_2
XPHY_500 VGND VPWR sky130_fd_sc_hd__tapvpwrvgnd_1
XFILLER_34_64 VGND VPWR sky130_fd_sc_hd__fill_1
XPHY_511 VGND VPWR sky130_fd_sc_hd__tapvpwrvgnd_1
XPHY_522 VGND VPWR sky130_fd_sc_hd__tapvpwrvgnd_1
XPHY_533 VGND VPWR sky130_fd_sc_hd__tapvpwrvgnd_1
XPHY_544 VGND VPWR sky130_fd_sc_hd__tapvpwrvgnd_1
XPHY_577 VGND VPWR sky130_fd_sc_hd__tapvpwrvgnd_1
XPHY_566 VGND VPWR sky130_fd_sc_hd__tapvpwrvgnd_1
XPHY_555 VGND VPWR sky130_fd_sc_hd__tapvpwrvgnd_1
XPHY_588 VGND VPWR sky130_fd_sc_hd__tapvpwrvgnd_1
XFILLER_11_243 VGND VPWR sky130_fd_sc_hd__fill_1
XFILLER_7_214 VGND VPWR sky130_fd_sc_hd__decap_12
XFILLER_50_30 VGND VPWR sky130_fd_sc_hd__fill_1
XFILLER_7_269 VGND VPWR sky130_fd_sc_hd__decap_12
XANTENNA__0780__A2 _0778_/X VGND VPWR sky130_fd_sc_hd__diode_2
XANTENNA__1155__D _1226_/Q VGND VPWR sky130_fd_sc_hd__diode_2
XFILLER_59_94 VGND VPWR sky130_fd_sc_hd__decap_12
XANTENNA__0994__D _0972_/A VGND VPWR sky130_fd_sc_hd__diode_2
XFILLER_15_7 VGND VPWR sky130_fd_sc_hd__fill_2
XFILLER_19_343 VGND VPWR sky130_fd_sc_hd__fill_2
XFILLER_19_365 VGND VPWR sky130_fd_sc_hd__fill_1
X_1020_ _0998_/X _1018_/X _1019_/X w_mask[10] VGND VPWR sky130_fd_sc_hd__o21ai_4
XFILLER_46_140 VGND VPWR sky130_fd_sc_hd__fill_2
Xclkbuf_4_11_0_clk clkbuf_3_5_0_clk/X _1130_/CLK VGND VPWR sky130_fd_sc_hd__clkbuf_1
XFILLER_34_324 VGND VPWR sky130_fd_sc_hd__decap_4
XFILLER_46_184 VGND VPWR sky130_fd_sc_hd__decap_8
XFILLER_46_195 VGND VPWR sky130_fd_sc_hd__fill_2
XFILLER_61_121 VGND VPWR sky130_fd_sc_hd__fill_1
XFILLER_61_165 VGND VPWR sky130_fd_sc_hd__fill_1
X_0804_ _0799_/X _1101_/Q _0594_/A _0801_/X d_fabric_out[18] VGND VPWR sky130_fd_sc_hd__o22a_4
X_0735_ _0676_/A _0669_/X _0739_/D _0695_/X _0655_/B _0735_/X VGND VPWR sky130_fd_sc_hd__a32o_4
X_0666_ _0663_/X _0660_/X _0665_/X d_fabric_out[0] VGND VPWR sky130_fd_sc_hd__a21o_4
X_0597_ _0726_/D _0689_/B _0596_/Y _0597_/X VGND VPWR sky130_fd_sc_hd__or3_4
XANTENNA__0781__A1_N _0674_/A VGND VPWR sky130_fd_sc_hd__diode_2
X_1218_ addr_r[6] baseaddr_r_sync[6] _1131_/CLK VGND VPWR sky130_fd_sc_hd__dfxtp_4
XFILLER_37_140 VGND VPWR sky130_fd_sc_hd__fill_2
XFILLER_52_110 VGND VPWR sky130_fd_sc_hd__fill_1
XFILLER_25_335 VGND VPWR sky130_fd_sc_hd__fill_2
XFILLER_37_195 VGND VPWR sky130_fd_sc_hd__fill_2
X_1149_ _1149_/D _0620_/A _1196_/CLK VGND VPWR sky130_fd_sc_hd__dfxtp_4
XANTENNA__0722__A _0722_/A VGND VPWR sky130_fd_sc_hd__diode_2
XFILLER_20_22 VGND VPWR sky130_fd_sc_hd__decap_8
XFILLER_4_239 VGND VPWR sky130_fd_sc_hd__decap_12
XFILLER_20_88 VGND VPWR sky130_fd_sc_hd__fill_2
XFILLER_29_31 VGND VPWR sky130_fd_sc_hd__fill_1
XFILLER_29_42 VGND VPWR sky130_fd_sc_hd__fill_2
XFILLER_29_53 VGND VPWR sky130_fd_sc_hd__fill_2
XFILLER_29_75 VGND VPWR sky130_fd_sc_hd__decap_3
XFILLER_43_143 VGND VPWR sky130_fd_sc_hd__fill_1
XFILLER_16_379 VGND VPWR sky130_fd_sc_hd__decap_12
Xclkbuf_3_0_0_clk clkbuf_3_1_0_clk/A clkbuf_3_0_0_clk/X VGND VPWR sky130_fd_sc_hd__clkbuf_1
XANTENNA__0616__B _0616_/B VGND VPWR sky130_fd_sc_hd__diode_2
XPHY_330 VGND VPWR sky130_fd_sc_hd__tapvpwrvgnd_1
XPHY_341 VGND VPWR sky130_fd_sc_hd__tapvpwrvgnd_1
XFILLER_31_338 VGND VPWR sky130_fd_sc_hd__fill_2
XPHY_352 VGND VPWR sky130_fd_sc_hd__tapvpwrvgnd_1
XPHY_363 VGND VPWR sky130_fd_sc_hd__tapvpwrvgnd_1
XPHY_374 VGND VPWR sky130_fd_sc_hd__tapvpwrvgnd_1
XPHY_385 VGND VPWR sky130_fd_sc_hd__tapvpwrvgnd_1
XPHY_396 VGND VPWR sky130_fd_sc_hd__tapvpwrvgnd_1
XFILLER_61_62 VGND VPWR sky130_fd_sc_hd__decap_12
XFILLER_6_68 VGND VPWR sky130_fd_sc_hd__decap_12
X_0520_ _0682_/C _0721_/C VGND VPWR sky130_fd_sc_hd__buf_1
XFILLER_3_261 VGND VPWR sky130_fd_sc_hd__fill_1
XANTENNA__0753__A2 _0495_/X VGND VPWR sky130_fd_sc_hd__diode_2
XFILLER_3_283 VGND VPWR sky130_fd_sc_hd__fill_2
XFILLER_66_235 VGND VPWR sky130_fd_sc_hd__fill_2
XFILLER_66_268 VGND VPWR sky130_fd_sc_hd__decap_6
X_1003_ _0972_/A _1031_/D VGND VPWR sky130_fd_sc_hd__inv_8
XFILLER_19_184 VGND VPWR sky130_fd_sc_hd__decap_4
XFILLER_34_165 VGND VPWR sky130_fd_sc_hd__decap_3
XFILLER_34_187 VGND VPWR sky130_fd_sc_hd__decap_3
XFILLER_30_371 VGND VPWR sky130_fd_sc_hd__decap_12
XANTENNA__0542__A _0681_/A VGND VPWR sky130_fd_sc_hd__diode_2
XANTENNA__0899__D _1177_/Q VGND VPWR sky130_fd_sc_hd__diode_2
X_0718_ _0718_/A _0716_/X _0501_/X _0717_/X _0718_/X VGND VPWR sky130_fd_sc_hd__or4_4
X_0649_ _0626_/Y _0632_/X _0636_/Y _0647_/X _0648_/Y _0649_/X VGND VPWR sky130_fd_sc_hd__o41a_4
XFILLER_25_132 VGND VPWR sky130_fd_sc_hd__fill_2
XANTENNA__0717__A _0717_/A VGND VPWR sky130_fd_sc_hd__diode_2
XFILLER_15_11 VGND VPWR sky130_fd_sc_hd__decap_12
XFILLER_25_165 VGND VPWR sky130_fd_sc_hd__decap_3
XFILLER_15_99 VGND VPWR sky130_fd_sc_hd__decap_3
XFILLER_31_32 VGND VPWR sky130_fd_sc_hd__fill_2
XANTENNA__0602__D _0602_/D VGND VPWR sky130_fd_sc_hd__diode_2
XANTENNA__0735__A2 _0669_/X VGND VPWR sky130_fd_sc_hd__diode_2
XFILLER_0_275 VGND VPWR sky130_fd_sc_hd__fill_2
XFILLER_63_227 VGND VPWR sky130_fd_sc_hd__decap_12
XFILLER_56_84 VGND VPWR sky130_fd_sc_hd__decap_8
XANTENNA__0627__A _0562_/X VGND VPWR sky130_fd_sc_hd__diode_2
XFILLER_16_143 VGND VPWR sky130_fd_sc_hd__decap_4
XFILLER_16_198 VGND VPWR sky130_fd_sc_hd__fill_2
XFILLER_16_187 VGND VPWR sky130_fd_sc_hd__fill_2
XANTENNA__0671__A1 _0676_/A VGND VPWR sky130_fd_sc_hd__diode_2
XPHY_160 VGND VPWR sky130_fd_sc_hd__tapvpwrvgnd_1
XFILLER_31_157 VGND VPWR sky130_fd_sc_hd__decap_4
XANTENNA__0671__B2 _0655_/B VGND VPWR sky130_fd_sc_hd__diode_2
XPHY_193 VGND VPWR sky130_fd_sc_hd__tapvpwrvgnd_1
XPHY_182 VGND VPWR sky130_fd_sc_hd__tapvpwrvgnd_1
XPHY_171 VGND VPWR sky130_fd_sc_hd__tapvpwrvgnd_1
XFILLER_31_179 VGND VPWR sky130_fd_sc_hd__fill_2
X_0503_ _1150_/Q _0616_/B VGND VPWR sky130_fd_sc_hd__buf_1
XFILLER_39_257 VGND VPWR sky130_fd_sc_hd__fill_1
XFILLER_54_227 VGND VPWR sky130_fd_sc_hd__decap_12
XFILLER_22_113 VGND VPWR sky130_fd_sc_hd__fill_2
XANTENNA__0703__C _0701_/X VGND VPWR sky130_fd_sc_hd__diode_2
XFILLER_26_32 VGND VPWR sky130_fd_sc_hd__decap_3
XFILLER_38_290 VGND VPWR sky130_fd_sc_hd__fill_2
XFILLER_13_157 VGND VPWR sky130_fd_sc_hd__decap_4
XFILLER_13_135 VGND VPWR sky130_fd_sc_hd__fill_2
XFILLER_13_179 VGND VPWR sky130_fd_sc_hd__fill_2
XFILLER_13_168 VGND VPWR sky130_fd_sc_hd__decap_4
XFILLER_42_53 VGND VPWR sky130_fd_sc_hd__fill_1
XFILLER_21_190 VGND VPWR sky130_fd_sc_hd__fill_2
XFILLER_42_64 VGND VPWR sky130_fd_sc_hd__fill_2
XANTENNA__0613__C _0594_/B VGND VPWR sky130_fd_sc_hd__diode_2
XFILLER_42_97 VGND VPWR sky130_fd_sc_hd__decap_3
XFILLER_5_367 VGND VPWR sky130_fd_sc_hd__decap_12
XANTENNA__0708__A2 _0706_/Y VGND VPWR sky130_fd_sc_hd__diode_2
XANTENNA__0910__A _0910_/A VGND VPWR sky130_fd_sc_hd__diode_2
XANTENNA__1163__D _1163_/D VGND VPWR sky130_fd_sc_hd__diode_2
XFILLER_67_94 VGND VPWR sky130_fd_sc_hd__fill_1
XANTENNA__0892__A1 _0827_/A VGND VPWR sky130_fd_sc_hd__diode_2
XANTENNA__1150__CLK _1163_/CLK VGND VPWR sky130_fd_sc_hd__diode_2
XFILLER_44_271 VGND VPWR sky130_fd_sc_hd__fill_2
XFILLER_44_293 VGND VPWR sky130_fd_sc_hd__fill_2
X_0983_ _0983_/A _0983_/X VGND VPWR sky130_fd_sc_hd__buf_1
XANTENNA__0898__B1_N _0897_/Y VGND VPWR sky130_fd_sc_hd__diode_2
XFILLER_67_385 VGND VPWR sky130_fd_sc_hd__decap_12
XFILLER_27_238 VGND VPWR sky130_fd_sc_hd__fill_2
XANTENNA__0714__B _1084_/Q VGND VPWR sky130_fd_sc_hd__diode_2