* NGSPICE file created from sram_ifc.ext - technology: sky130A

* Black-box entry subcircuit for sky130_fd_sc_hd__diode_2 abstract view
.subckt sky130_fd_sc_hd__diode_2 DIODE VGND VPWR
.ends

* Black-box entry subcircuit for sky130_fd_sc_hd__fill_2 abstract view
.subckt sky130_fd_sc_hd__fill_2 VGND VPWR
.ends

* Black-box entry subcircuit for sky130_fd_sc_hd__decap_12 abstract view
.subckt sky130_fd_sc_hd__decap_12 VGND VPWR
.ends

* Black-box entry subcircuit for sky130_fd_sc_hd__decap_3 abstract view
.subckt sky130_fd_sc_hd__decap_3 VGND VPWR
.ends

* Black-box entry subcircuit for sky130_fd_sc_hd__dfxtp_4 abstract view
.subckt sky130_fd_sc_hd__dfxtp_4 D Q CLK VGND VPWR
.ends

* Black-box entry subcircuit for sky130_fd_sc_hd__a2bb2oi_4 abstract view
.subckt sky130_fd_sc_hd__a2bb2oi_4 A1_N A2_N B1 B2 Y VGND VPWR
.ends

* Black-box entry subcircuit for sky130_fd_sc_hd__decap_8 abstract view
.subckt sky130_fd_sc_hd__decap_8 VGND VPWR
.ends

* Black-box entry subcircuit for sky130_fd_sc_hd__fill_1 abstract view
.subckt sky130_fd_sc_hd__fill_1 VGND VPWR
.ends

* Black-box entry subcircuit for sky130_fd_sc_hd__o41a_4 abstract view
.subckt sky130_fd_sc_hd__o41a_4 A1 A2 A3 A4 B1 X VGND VPWR
.ends

* Black-box entry subcircuit for sky130_fd_sc_hd__clkbuf_1 abstract view
.subckt sky130_fd_sc_hd__clkbuf_1 A X VGND VPWR
.ends

* Black-box entry subcircuit for sky130_fd_sc_hd__inv_8 abstract view
.subckt sky130_fd_sc_hd__inv_8 A Y VGND VPWR
.ends

* Black-box entry subcircuit for sky130_fd_sc_hd__nand3_4 abstract view
.subckt sky130_fd_sc_hd__nand3_4 A B C Y VGND VPWR
.ends

* Black-box entry subcircuit for sky130_fd_sc_hd__a21oi_4 abstract view
.subckt sky130_fd_sc_hd__a21oi_4 A1 A2 B1 Y VGND VPWR
.ends

* Black-box entry subcircuit for sky130_fd_sc_hd__or2_4 abstract view
.subckt sky130_fd_sc_hd__or2_4 A B X VGND VPWR
.ends

* Black-box entry subcircuit for sky130_fd_sc_hd__tapvpwrvgnd_1 abstract view
.subckt sky130_fd_sc_hd__tapvpwrvgnd_1 VGND VPWR
.ends

* Black-box entry subcircuit for sky130_fd_sc_hd__decap_4 abstract view
.subckt sky130_fd_sc_hd__decap_4 VGND VPWR
.ends

* Black-box entry subcircuit for sky130_fd_sc_hd__buf_1 abstract view
.subckt sky130_fd_sc_hd__buf_1 A X VGND VPWR
.ends

* Black-box entry subcircuit for sky130_fd_sc_hd__decap_6 abstract view
.subckt sky130_fd_sc_hd__decap_6 VGND VPWR
.ends

* Black-box entry subcircuit for sky130_fd_sc_hd__a21bo_4 abstract view
.subckt sky130_fd_sc_hd__a21bo_4 A1 A2 B1_N X VGND VPWR
.ends

* Black-box entry subcircuit for sky130_fd_sc_hd__nor4_4 abstract view
.subckt sky130_fd_sc_hd__nor4_4 A B C D Y VGND VPWR
.ends

* Black-box entry subcircuit for sky130_fd_sc_hd__o21a_4 abstract view
.subckt sky130_fd_sc_hd__o21a_4 A1 A2 B1 X VGND VPWR
.ends

* Black-box entry subcircuit for sky130_fd_sc_hd__o22a_4 abstract view
.subckt sky130_fd_sc_hd__o22a_4 A1 A2 B1 B2 X VGND VPWR
.ends

* Black-box entry subcircuit for sky130_fd_sc_hd__nor2_4 abstract view
.subckt sky130_fd_sc_hd__nor2_4 A B Y VGND VPWR
.ends

* Black-box entry subcircuit for sky130_fd_sc_hd__nand4_4 abstract view
.subckt sky130_fd_sc_hd__nand4_4 A B C D Y VGND VPWR
.ends

* Black-box entry subcircuit for sky130_fd_sc_hd__nor3_4 abstract view
.subckt sky130_fd_sc_hd__nor3_4 A B C Y VGND VPWR
.ends

* Black-box entry subcircuit for sky130_fd_sc_hd__a21o_4 abstract view
.subckt sky130_fd_sc_hd__a21o_4 A1 A2 B1 X VGND VPWR
.ends

* Black-box entry subcircuit for sky130_fd_sc_hd__and4_4 abstract view
.subckt sky130_fd_sc_hd__and4_4 A B C D X VGND VPWR
.ends

* Black-box entry subcircuit for sky130_fd_sc_hd__nand2_4 abstract view
.subckt sky130_fd_sc_hd__nand2_4 A B Y VGND VPWR
.ends

* Black-box entry subcircuit for sky130_fd_sc_hd__o21ai_4 abstract view
.subckt sky130_fd_sc_hd__o21ai_4 A1 A2 B1 Y VGND VPWR
.ends

* Black-box entry subcircuit for sky130_fd_sc_hd__and3_4 abstract view
.subckt sky130_fd_sc_hd__and3_4 A B C X VGND VPWR
.ends

* Black-box entry subcircuit for sky130_fd_sc_hd__or3_4 abstract view
.subckt sky130_fd_sc_hd__or3_4 A B C X VGND VPWR
.ends

* Black-box entry subcircuit for sky130_fd_sc_hd__a22oi_4 abstract view
.subckt sky130_fd_sc_hd__a22oi_4 A1 A2 B1 B2 Y VGND VPWR
.ends

* Black-box entry subcircuit for sky130_fd_sc_hd__a2111oi_4 abstract view
.subckt sky130_fd_sc_hd__a2111oi_4 A1 A2 B1 C1 D1 Y VGND VPWR
.ends

* Black-box entry subcircuit for sky130_fd_sc_hd__clkbuf_16 abstract view
.subckt sky130_fd_sc_hd__clkbuf_16 A X VGND VPWR
.ends

* Black-box entry subcircuit for sky130_fd_sc_hd__o41ai_4 abstract view
.subckt sky130_fd_sc_hd__o41ai_4 A1 A2 A3 A4 B1 Y VGND VPWR
.ends

* Black-box entry subcircuit for sky130_fd_sc_hd__and2_4 abstract view
.subckt sky130_fd_sc_hd__and2_4 A B X VGND VPWR
.ends

* Black-box entry subcircuit for sky130_fd_sc_hd__a32o_4 abstract view
.subckt sky130_fd_sc_hd__a32o_4 A1 A2 A3 B1 B2 X VGND VPWR
.ends

* Black-box entry subcircuit for sky130_fd_sc_hd__a32oi_4 abstract view
.subckt sky130_fd_sc_hd__a32oi_4 A1 A2 A3 B1 B2 Y VGND VPWR
.ends

* Black-box entry subcircuit for sky130_fd_sc_hd__a2111o_4 abstract view
.subckt sky130_fd_sc_hd__a2111o_4 A1 A2 B1 C1 D1 X VGND VPWR
.ends

* Black-box entry subcircuit for sky130_fd_sc_hd__a21boi_4 abstract view
.subckt sky130_fd_sc_hd__a21boi_4 A1 A2 B1_N Y VGND VPWR
.ends

* Black-box entry subcircuit for sky130_fd_sc_hd__a41oi_4 abstract view
.subckt sky130_fd_sc_hd__a41oi_4 A1 A2 A3 A4 B1 Y VGND VPWR
.ends

* Black-box entry subcircuit for sky130_fd_sc_hd__a211o_4 abstract view
.subckt sky130_fd_sc_hd__a211o_4 A1 A2 B1 C1 X VGND VPWR
.ends

* Black-box entry subcircuit for sky130_fd_sc_hd__a41o_4 abstract view
.subckt sky130_fd_sc_hd__a41o_4 A1 A2 A3 A4 B1 X VGND VPWR
.ends

* Black-box entry subcircuit for sky130_fd_sc_hd__a2bb2o_4 abstract view
.subckt sky130_fd_sc_hd__a2bb2o_4 A1_N A2_N B1 B2 X VGND VPWR
.ends

.subckt sram_ifc addr_r[0] addr_r[10] addr_r[11] addr_r[12] addr_r[13] addr_r[1] addr_r[2]
+ addr_r[3] addr_r[4] addr_r[5] addr_r[6] addr_r[7] addr_r[8] addr_r[9] addr_w[0]
+ addr_w[10] addr_w[11] addr_w[12] addr_w[13] addr_w[1] addr_w[2] addr_w[3] addr_w[4]
+ addr_w[5] addr_w[6] addr_w[7] addr_w[8] addr_w[9] baseaddr_r_sync[0] baseaddr_r_sync[1]
+ baseaddr_r_sync[2] baseaddr_r_sync[3] baseaddr_r_sync[4] baseaddr_r_sync[5] baseaddr_r_sync[6]
+ baseaddr_r_sync[7] baseaddr_r_sync[8] baseaddr_w_sync[0] baseaddr_w_sync[1] baseaddr_w_sync[2]
+ baseaddr_w_sync[3] baseaddr_w_sync[4] baseaddr_w_sync[5] baseaddr_w_sync[6] baseaddr_w_sync[7]
+ baseaddr_w_sync[8] clk conf[0] conf[1] conf[2] csb csb0_sync csb1_sync d_fabric_in[0]
+ d_fabric_in[10] d_fabric_in[11] d_fabric_in[12] d_fabric_in[13] d_fabric_in[14]
+ d_fabric_in[15] d_fabric_in[16] d_fabric_in[17] d_fabric_in[18] d_fabric_in[19]
+ d_fabric_in[1] d_fabric_in[20] d_fabric_in[21] d_fabric_in[22] d_fabric_in[23] d_fabric_in[24]
+ d_fabric_in[25] d_fabric_in[26] d_fabric_in[27] d_fabric_in[28] d_fabric_in[29]
+ d_fabric_in[2] d_fabric_in[30] d_fabric_in[31] d_fabric_in[3] d_fabric_in[4] d_fabric_in[5]
+ d_fabric_in[6] d_fabric_in[7] d_fabric_in[8] d_fabric_in[9] d_fabric_out[0] d_fabric_out[10]
+ d_fabric_out[11] d_fabric_out[12] d_fabric_out[13] d_fabric_out[14] d_fabric_out[15]
+ d_fabric_out[16] d_fabric_out[17] d_fabric_out[18] d_fabric_out[19] d_fabric_out[1]
+ d_fabric_out[20] d_fabric_out[21] d_fabric_out[22] d_fabric_out[23] d_fabric_out[24]
+ d_fabric_out[25] d_fabric_out[26] d_fabric_out[27] d_fabric_out[28] d_fabric_out[29]
+ d_fabric_out[2] d_fabric_out[30] d_fabric_out[31] d_fabric_out[3] d_fabric_out[4]
+ d_fabric_out[5] d_fabric_out[6] d_fabric_out[7] d_fabric_out[8] d_fabric_out[9]
+ d_sram_in[0] d_sram_in[10] d_sram_in[11] d_sram_in[12] d_sram_in[13] d_sram_in[14]
+ d_sram_in[15] d_sram_in[16] d_sram_in[17] d_sram_in[18] d_sram_in[19] d_sram_in[1]
+ d_sram_in[20] d_sram_in[21] d_sram_in[22] d_sram_in[23] d_sram_in[24] d_sram_in[25]
+ d_sram_in[26] d_sram_in[27] d_sram_in[28] d_sram_in[29] d_sram_in[2] d_sram_in[30]
+ d_sram_in[31] d_sram_in[3] d_sram_in[4] d_sram_in[5] d_sram_in[6] d_sram_in[7] d_sram_in[8]
+ d_sram_in[9] d_sram_out[0] d_sram_out[10] d_sram_out[11] d_sram_out[12] d_sram_out[13]
+ d_sram_out[14] d_sram_out[15] d_sram_out[16] d_sram_out[17] d_sram_out[18] d_sram_out[19]
+ d_sram_out[1] d_sram_out[20] d_sram_out[21] d_sram_out[22] d_sram_out[23] d_sram_out[24]
+ d_sram_out[25] d_sram_out[26] d_sram_out[27] d_sram_out[28] d_sram_out[29] d_sram_out[2]
+ d_sram_out[30] d_sram_out[31] d_sram_out[3] d_sram_out[4] d_sram_out[5] d_sram_out[6]
+ d_sram_out[7] d_sram_out[8] d_sram_out[9] out_reg reb w_mask[0] w_mask[10] w_mask[11]
+ w_mask[12] w_mask[13] w_mask[14] w_mask[15] w_mask[16] w_mask[17] w_mask[18] w_mask[19]
+ w_mask[1] w_mask[20] w_mask[21] w_mask[22] w_mask[23] w_mask[24] w_mask[25] w_mask[26]
+ w_mask[27] w_mask[28] w_mask[29] w_mask[2] w_mask[30] w_mask[31] w_mask[3] w_mask[4]
+ w_mask[5] w_mask[6] w_mask[7] w_mask[8] w_mask[9] web web0_sync VPWR VGND
XANTENNA__1231__CLK _1256_/CLK VGND VPWR sky130_fd_sc_hd__diode_2
XANTENNA__0703__A _0861_/A VGND VPWR sky130_fd_sc_hd__diode_2
XFILLER_117_88 VGND VPWR sky130_fd_sc_hd__fill_2
XFILLER_77_59 VGND VPWR sky130_fd_sc_hd__fill_2
XFILLER_133_32 VGND VPWR sky130_fd_sc_hd__fill_2
XANTENNA__1142__B1 _1141_/X VGND VPWR sky130_fd_sc_hd__diode_2
XFILLER_26_41 VGND VPWR sky130_fd_sc_hd__decap_12
XFILLER_26_74 VGND VPWR sky130_fd_sc_hd__decap_12
XFILLER_13_166 VGND VPWR sky130_fd_sc_hd__fill_2
XFILLER_9_104 VGND VPWR sky130_fd_sc_hd__fill_2
XFILLER_42_62 VGND VPWR sky130_fd_sc_hd__decap_3
XFILLER_3_56 VGND VPWR sky130_fd_sc_hd__decap_12
XANTENNA__0986__C _0986_/C VGND VPWR sky130_fd_sc_hd__diode_2
XANTENNA__1254__CLK _1288_/CLK VGND VPWR sky130_fd_sc_hd__diode_2
X_1270_ addr_w[10] _1270_/Q _1166_/CLK VGND VPWR sky130_fd_sc_hd__dfxtp_4
XANTENNA__1133__B1 _1128_/X VGND VPWR sky130_fd_sc_hd__diode_2
X_0985_ _0953_/Y _0966_/X _1242_/Q _0919_/Y _0985_/Y VGND VPWR sky130_fd_sc_hd__a2bb2oi_4
XANTENNA__0523__A _0546_/A VGND VPWR sky130_fd_sc_hd__diode_2
XANTENNA__1124__B1 _1123_/X VGND VPWR sky130_fd_sc_hd__diode_2
XFILLER_103_35 VGND VPWR sky130_fd_sc_hd__fill_2
XFILLER_103_68 VGND VPWR sky130_fd_sc_hd__fill_2
XFILLER_10_114 VGND VPWR sky130_fd_sc_hd__decap_8
XANTENNA__0650__A2 _0649_/Y VGND VPWR sky130_fd_sc_hd__diode_2
XFILLER_128_54 VGND VPWR sky130_fd_sc_hd__fill_1
XANTENNA__1277__CLK _1163_/CLK VGND VPWR sky130_fd_sc_hd__diode_2
XANTENNA__1115__B1 _1114_/X VGND VPWR sky130_fd_sc_hd__diode_2
XFILLER_37_84 VGND VPWR sky130_fd_sc_hd__fill_2
XANTENNA__0608__A _0608_/A VGND VPWR sky130_fd_sc_hd__diode_2
XFILLER_53_83 VGND VPWR sky130_fd_sc_hd__decap_3
X_0770_ _0533_/X _0763_/Y _0765_/Y _0767_/Y _0769_/Y _0770_/X VGND VPWR sky130_fd_sc_hd__o41a_4
XFILLER_68_103 VGND VPWR sky130_fd_sc_hd__fill_2
XFILLER_68_114 VGND VPWR sky130_fd_sc_hd__decap_3
XANTENNA__0562__D1 _0561_/X VGND VPWR sky130_fd_sc_hd__diode_2
XFILLER_83_106 VGND VPWR sky130_fd_sc_hd__fill_2
XFILLER_68_147 VGND VPWR sky130_fd_sc_hd__fill_2
X_1253_ d_fabric_in[25] _1253_/Q _1253_/CLK VGND VPWR sky130_fd_sc_hd__dfxtp_4
XFILLER_83_128 VGND VPWR sky130_fd_sc_hd__fill_2
X_1184_ d_sram_out[7] _1184_/Q _1184_/CLK VGND VPWR sky130_fd_sc_hd__dfxtp_4
XANTENNA__0518__A _0518_/A VGND VPWR sky130_fd_sc_hd__diode_2
XANTENNA__0880__A2 _1167_/Q VGND VPWR sky130_fd_sc_hd__diode_2
Xclkbuf_4_12_0_clk clkbuf_3_6_0_clk/X _1184_/CLK VGND VPWR sky130_fd_sc_hd__clkbuf_1
X_0968_ _0994_/A _0966_/X _1237_/Q _0967_/X _0968_/Y VGND VPWR sky130_fd_sc_hd__a2bb2oi_4
X_0899_ _0899_/A _0994_/A VGND VPWR sky130_fd_sc_hd__inv_8
XFILLER_59_158 VGND VPWR sky130_fd_sc_hd__fill_2
XFILLER_59_147 VGND VPWR sky130_fd_sc_hd__fill_1
XANTENNA__1234__D d_fabric_in[6] VGND VPWR sky130_fd_sc_hd__diode_2
XFILLER_67_180 VGND VPWR sky130_fd_sc_hd__fill_2
XFILLER_135_3 VGND VPWR sky130_fd_sc_hd__decap_12
XFILLER_128_119 VGND VPWR sky130_fd_sc_hd__decap_3
XFILLER_23_97 VGND VPWR sky130_fd_sc_hd__fill_2
XFILLER_2_121 VGND VPWR sky130_fd_sc_hd__fill_1
XANTENNA__0610__B _0547_/A VGND VPWR sky130_fd_sc_hd__diode_2
XANTENNA__0720__A1_N _0889_/A VGND VPWR sky130_fd_sc_hd__diode_2
XFILLER_80_109 VGND VPWR sky130_fd_sc_hd__decap_3
XANTENNA__0862__A2 _1160_/Q VGND VPWR sky130_fd_sc_hd__diode_2
XFILLER_9_44 VGND VPWR sky130_fd_sc_hd__decap_3
X_0822_ _0822_/A _0822_/B _0786_/A _0822_/Y VGND VPWR sky130_fd_sc_hd__nand3_4
X_0753_ _0752_/Y _0753_/Y VGND VPWR sky130_fd_sc_hd__inv_8
X_0684_ _0600_/X _1161_/D _0683_/Y _0684_/Y VGND VPWR sky130_fd_sc_hd__a21oi_4
XFILLER_50_3 VGND VPWR sky130_fd_sc_hd__fill_2
Xclkbuf_3_1_0_clk clkbuf_3_1_0_clk/A clkbuf_4_2_0_clk/A VGND VPWR sky130_fd_sc_hd__clkbuf_1
XFILLER_56_106 VGND VPWR sky130_fd_sc_hd__fill_2
XFILLER_56_139 VGND VPWR sky130_fd_sc_hd__fill_1
X_1236_ d_fabric_in[8] _0963_/D _1256_/CLK VGND VPWR sky130_fd_sc_hd__dfxtp_4
X_1167_ _0607_/C _1167_/Q _1172_/CLK VGND VPWR sky130_fd_sc_hd__dfxtp_4
XANTENNA__0853__A2 _1158_/Q VGND VPWR sky130_fd_sc_hd__diode_2
X_1098_ _1071_/Y _1106_/A _1098_/X VGND VPWR sky130_fd_sc_hd__or2_4
XANTENNA__1079__A _1030_/Y VGND VPWR sky130_fd_sc_hd__diode_2
XFILLER_118_174 VGND VPWR sky130_fd_sc_hd__decap_8
XANTENNA__1229__D d_fabric_in[1] VGND VPWR sky130_fd_sc_hd__diode_2
XFILLER_107_7 VGND VPWR sky130_fd_sc_hd__fill_2
XFILLER_109_89 VGND VPWR sky130_fd_sc_hd__fill_1
XFILLER_69_27 VGND VPWR sky130_fd_sc_hd__fill_2
XANTENNA__1030__A2 _0919_/Y VGND VPWR sky130_fd_sc_hd__diode_2
XANTENNA__0711__A _0709_/X VGND VPWR sky130_fd_sc_hd__diode_2
XFILLER_133_166 VGND VPWR sky130_fd_sc_hd__decap_12
XFILLER_125_11 VGND VPWR sky130_fd_sc_hd__decap_12
XFILLER_125_66 VGND VPWR sky130_fd_sc_hd__fill_2
XFILLER_125_88 VGND VPWR sky130_fd_sc_hd__fill_2
XFILLER_18_53 VGND VPWR sky130_fd_sc_hd__decap_8
XFILLER_55_161 VGND VPWR sky130_fd_sc_hd__fill_2
XFILLER_55_150 VGND VPWR sky130_fd_sc_hd__fill_1
XFILLER_70_120 VGND VPWR sky130_fd_sc_hd__fill_2
XPHY_510 VGND VPWR sky130_fd_sc_hd__tapvpwrvgnd_1
XPHY_543 VGND VPWR sky130_fd_sc_hd__tapvpwrvgnd_1
XPHY_532 VGND VPWR sky130_fd_sc_hd__tapvpwrvgnd_1
XPHY_521 VGND VPWR sky130_fd_sc_hd__tapvpwrvgnd_1
XPHY_587 VGND VPWR sky130_fd_sc_hd__tapvpwrvgnd_1
XPHY_576 VGND VPWR sky130_fd_sc_hd__tapvpwrvgnd_1
XPHY_565 VGND VPWR sky130_fd_sc_hd__tapvpwrvgnd_1
XPHY_554 VGND VPWR sky130_fd_sc_hd__tapvpwrvgnd_1
XPHY_598 VGND VPWR sky130_fd_sc_hd__tapvpwrvgnd_1
XFILLER_50_40 VGND VPWR sky130_fd_sc_hd__decap_3
XFILLER_50_73 VGND VPWR sky130_fd_sc_hd__decap_3
XFILLER_109_185 VGND VPWR sky130_fd_sc_hd__decap_4
XANTENNA__0621__A _0621_/A VGND VPWR sky130_fd_sc_hd__diode_2
XANTENNA__0978__D _1240_/Q VGND VPWR sky130_fd_sc_hd__diode_2
XANTENNA__0780__A1 _0822_/B VGND VPWR sky130_fd_sc_hd__diode_2
XFILLER_59_93 VGND VPWR sky130_fd_sc_hd__decap_8
XFILLER_38_106 VGND VPWR sky130_fd_sc_hd__fill_2
XANTENNA__0994__C _0960_/A VGND VPWR sky130_fd_sc_hd__diode_2
XFILLER_75_70 VGND VPWR sky130_fd_sc_hd__fill_2
XFILLER_46_150 VGND VPWR sky130_fd_sc_hd__decap_4
X_1021_ _1020_/Y _1074_/C VGND VPWR sky130_fd_sc_hd__buf_1
XFILLER_61_120 VGND VPWR sky130_fd_sc_hd__decap_4
XFILLER_98_3 VGND VPWR sky130_fd_sc_hd__fill_2
XFILLER_61_186 VGND VPWR sky130_fd_sc_hd__fill_2
XFILLER_91_80 VGND VPWR sky130_fd_sc_hd__fill_1
X_0805_ _1190_/Q _0805_/Y VGND VPWR sky130_fd_sc_hd__inv_8
XANTENNA__1049__D _1083_/B VGND VPWR sky130_fd_sc_hd__diode_2
X_0736_ _0736_/A _0736_/Y VGND VPWR sky130_fd_sc_hd__inv_8
XFILLER_115_111 VGND VPWR sky130_fd_sc_hd__fill_2
XANTENNA__0531__A _0528_/X VGND VPWR sky130_fd_sc_hd__diode_2
X_0667_ _0606_/B _0667_/B _1173_/D _0667_/Y VGND VPWR sky130_fd_sc_hd__nand3_4
XANTENNA__0771__A1 _1179_/Q VGND VPWR sky130_fd_sc_hd__diode_2
XANTENNA__1065__C _1102_/B VGND VPWR sky130_fd_sc_hd__diode_2
X_0598_ _0635_/A _0621_/A VGND VPWR sky130_fd_sc_hd__buf_1
XFILLER_130_147 VGND VPWR sky130_fd_sc_hd__decap_12
X_1219_ _0919_/B _1219_/Q _1177_/CLK VGND VPWR sky130_fd_sc_hd__dfxtp_4
XFILLER_37_161 VGND VPWR sky130_fd_sc_hd__fill_2
XFILLER_111_24 VGND VPWR sky130_fd_sc_hd__decap_4
XANTENNA__0706__A _1145_/Q VGND VPWR sky130_fd_sc_hd__diode_2
XFILLER_106_100 VGND VPWR sky130_fd_sc_hd__fill_2
XFILLER_20_43 VGND VPWR sky130_fd_sc_hd__decap_6
XANTENNA__1003__A2 _1000_/X VGND VPWR sky130_fd_sc_hd__diode_2
XFILLER_106_177 VGND VPWR sky130_fd_sc_hd__decap_6
XFILLER_121_125 VGND VPWR sky130_fd_sc_hd__fill_2
XFILLER_96_36 VGND VPWR sky130_fd_sc_hd__fill_2
XFILLER_136_98 VGND VPWR sky130_fd_sc_hd__decap_12
XFILLER_121_136 VGND VPWR sky130_fd_sc_hd__fill_2
XFILLER_29_52 VGND VPWR sky130_fd_sc_hd__fill_2
XFILLER_28_172 VGND VPWR sky130_fd_sc_hd__decap_8
XFILLER_45_62 VGND VPWR sky130_fd_sc_hd__fill_2
XFILLER_45_51 VGND VPWR sky130_fd_sc_hd__fill_2
XFILLER_43_186 VGND VPWR sky130_fd_sc_hd__fill_2
XANTENNA__0616__A _0588_/C VGND VPWR sky130_fd_sc_hd__diode_2
XPHY_351 VGND VPWR sky130_fd_sc_hd__tapvpwrvgnd_1
XPHY_340 VGND VPWR sky130_fd_sc_hd__tapvpwrvgnd_1
XFILLER_101_90 VGND VPWR sky130_fd_sc_hd__fill_2
XPHY_395 VGND VPWR sky130_fd_sc_hd__tapvpwrvgnd_1
XPHY_384 VGND VPWR sky130_fd_sc_hd__tapvpwrvgnd_1
XPHY_373 VGND VPWR sky130_fd_sc_hd__tapvpwrvgnd_1
XPHY_362 VGND VPWR sky130_fd_sc_hd__tapvpwrvgnd_1
X_0521_ _0520_/X _0521_/X VGND VPWR sky130_fd_sc_hd__buf_1
XFILLER_112_158 VGND VPWR sky130_fd_sc_hd__decap_4
XFILLER_112_169 VGND VPWR sky130_fd_sc_hd__decap_12
XFILLER_86_80 VGND VPWR sky130_fd_sc_hd__fill_2
XFILLER_13_3 VGND VPWR sky130_fd_sc_hd__fill_2
XANTENNA__0808__A2 _0807_/Y VGND VPWR sky130_fd_sc_hd__diode_2
X_1004_ _1252_/Q _0960_/X _0964_/X d_sram_in[24] VGND VPWR sky130_fd_sc_hd__a21bo_4
XFILLER_34_175 VGND VPWR sky130_fd_sc_hd__fill_2
XANTENNA__0526__A _0729_/B VGND VPWR sky130_fd_sc_hd__diode_2
XANTENNA__1160__CLK _1173_/CLK VGND VPWR sky130_fd_sc_hd__diode_2
X_0719_ _0666_/Y _0716_/X _0719_/C _0719_/D _0719_/Y VGND VPWR sky130_fd_sc_hd__nor4_4
XFILLER_106_13 VGND VPWR sky130_fd_sc_hd__fill_2
XANTENNA__1092__A _1088_/A VGND VPWR sky130_fd_sc_hd__diode_2
XANTENNA__1242__D d_fabric_in[14] VGND VPWR sky130_fd_sc_hd__diode_2
XFILLER_25_142 VGND VPWR sky130_fd_sc_hd__fill_2
XFILLER_15_32 VGND VPWR sky130_fd_sc_hd__decap_3
XFILLER_40_123 VGND VPWR sky130_fd_sc_hd__decap_3
XFILLER_15_54 VGND VPWR sky130_fd_sc_hd__decap_12
XANTENNA__0983__A1 _1241_/Q VGND VPWR sky130_fd_sc_hd__diode_2
XANTENNA__0602__C _0595_/Y VGND VPWR sky130_fd_sc_hd__diode_2
XANTENNA__1152__D _0825_/Y VGND VPWR sky130_fd_sc_hd__diode_2
XFILLER_31_101 VGND VPWR sky130_fd_sc_hd__fill_1
XPHY_170 VGND VPWR sky130_fd_sc_hd__decap_3
XANTENNA__1183__CLK _1180_/CLK VGND VPWR sky130_fd_sc_hd__diode_2
XPHY_192 VGND VPWR sky130_fd_sc_hd__decap_3
XPHY_181 VGND VPWR sky130_fd_sc_hd__decap_3
XANTENNA__0974__B2 _0967_/X VGND VPWR sky130_fd_sc_hd__diode_2
XANTENNA__0726__A1 _0654_/Y VGND VPWR sky130_fd_sc_hd__diode_2
XFILLER_22_123 VGND VPWR sky130_fd_sc_hd__fill_2
XANTENNA__0965__A1 _0963_/D VGND VPWR sky130_fd_sc_hd__diode_2
XFILLER_117_12 VGND VPWR sky130_fd_sc_hd__fill_2
XFILLER_117_23 VGND VPWR sky130_fd_sc_hd__decap_4
XANTENNA__1237__D d_fabric_in[9] VGND VPWR sky130_fd_sc_hd__diode_2
XFILLER_77_27 VGND VPWR sky130_fd_sc_hd__fill_2
XFILLER_89_145 VGND VPWR sky130_fd_sc_hd__fill_2
XFILLER_133_55 VGND VPWR sky130_fd_sc_hd__fill_2
XANTENNA__1142__A1 _1097_/Y VGND VPWR sky130_fd_sc_hd__diode_2
XFILLER_26_53 VGND VPWR sky130_fd_sc_hd__decap_8
XFILLER_26_86 VGND VPWR sky130_fd_sc_hd__decap_6
XFILLER_42_96 VGND VPWR sky130_fd_sc_hd__fill_2
XANTENNA__1147__D _0772_/X VGND VPWR sky130_fd_sc_hd__diode_2
XANTENNA__0986__D _0930_/Y VGND VPWR sky130_fd_sc_hd__diode_2
XFILLER_95_137 VGND VPWR sky130_fd_sc_hd__fill_2
XFILLER_95_148 VGND VPWR sky130_fd_sc_hd__decap_3
XFILLER_3_68 VGND VPWR sky130_fd_sc_hd__decap_12
XFILLER_67_93 VGND VPWR sky130_fd_sc_hd__fill_1
XANTENNA__1133__A1 _1024_/X VGND VPWR sky130_fd_sc_hd__diode_2
XANTENNA__0892__B1 _0891_/X VGND VPWR sky130_fd_sc_hd__diode_2
XFILLER_80_3 VGND VPWR sky130_fd_sc_hd__fill_2
XANTENNA__0804__A _0608_/C VGND VPWR sky130_fd_sc_hd__diode_2
X_0984_ _0960_/A _0984_/X VGND VPWR sky130_fd_sc_hd__buf_1
XANTENNA__0947__A1 _0977_/D VGND VPWR sky130_fd_sc_hd__diode_2
XFILLER_86_115 VGND VPWR sky130_fd_sc_hd__decap_3
XFILLER_86_159 VGND VPWR sky130_fd_sc_hd__fill_2
XANTENNA__1124__A1 _1067_/Y VGND VPWR sky130_fd_sc_hd__diode_2
XFILLER_63_29 VGND VPWR sky130_fd_sc_hd__fill_2
XANTENNA__0714__A _0576_/X VGND VPWR sky130_fd_sc_hd__diode_2
XFILLER_12_11 VGND VPWR sky130_fd_sc_hd__decap_12
XFILLER_77_159 VGND VPWR sky130_fd_sc_hd__fill_2
XANTENNA__1115__A1 _1049_/Y VGND VPWR sky130_fd_sc_hd__diode_2
XFILLER_37_30 VGND VPWR sky130_fd_sc_hd__fill_1
XFILLER_37_63 VGND VPWR sky130_fd_sc_hd__fill_2
XANTENNA__0608__B _0608_/B VGND VPWR sky130_fd_sc_hd__diode_2
XANTENNA__0624__A _0621_/B VGND VPWR sky130_fd_sc_hd__diode_2
XANTENNA__1221__CLK _1218_/CLK VGND VPWR sky130_fd_sc_hd__diode_2
XFILLER_5_174 VGND VPWR sky130_fd_sc_hd__decap_12
XFILLER_78_92 VGND VPWR sky130_fd_sc_hd__fill_2
XANTENNA__0562__C1 _0553_/Y VGND VPWR sky130_fd_sc_hd__diode_2
X_1252_ d_fabric_in[24] _1252_/Q _1252_/CLK VGND VPWR sky130_fd_sc_hd__dfxtp_4
X_1183_ d_sram_out[6] _0628_/C _1180_/CLK VGND VPWR sky130_fd_sc_hd__dfxtp_4
XANTENNA__0865__B1 _0864_/Y VGND VPWR sky130_fd_sc_hd__diode_2
XFILLER_91_173 VGND VPWR sky130_fd_sc_hd__fill_2
XANTENNA__0534__A _0542_/A VGND VPWR sky130_fd_sc_hd__diode_2
X_0967_ _0919_/Y _0967_/X VGND VPWR sky130_fd_sc_hd__buf_1
X_0898_ _0874_/X _1176_/Q _0897_/Y d_fabric_out[31] VGND VPWR sky130_fd_sc_hd__o21a_4
XFILLER_114_13 VGND VPWR sky130_fd_sc_hd__fill_2
XFILLER_74_118 VGND VPWR sky130_fd_sc_hd__fill_2
XFILLER_114_57 VGND VPWR sky130_fd_sc_hd__fill_2
XFILLER_82_184 VGND VPWR sky130_fd_sc_hd__decap_6
XANTENNA__1250__D d_fabric_in[22] VGND VPWR sky130_fd_sc_hd__diode_2
XFILLER_130_78 VGND VPWR sky130_fd_sc_hd__fill_1
XFILLER_130_56 VGND VPWR sky130_fd_sc_hd__fill_1
XFILLER_23_32 VGND VPWR sky130_fd_sc_hd__fill_2
XFILLER_128_3 VGND VPWR sky130_fd_sc_hd__decap_12
XANTENNA__1244__CLK _1253_/CLK VGND VPWR sky130_fd_sc_hd__diode_2
XFILLER_65_107 VGND VPWR sky130_fd_sc_hd__fill_2
XFILLER_48_95 VGND VPWR sky130_fd_sc_hd__decap_3
XFILLER_48_73 VGND VPWR sky130_fd_sc_hd__fill_1
XFILLER_48_62 VGND VPWR sky130_fd_sc_hd__fill_1
XANTENNA__0619__A _0604_/Y VGND VPWR sky130_fd_sc_hd__diode_2
XANTENNA__0847__B1 _0846_/Y VGND VPWR sky130_fd_sc_hd__diode_2
XFILLER_64_50 VGND VPWR sky130_fd_sc_hd__decap_4
XANTENNA__1160__D _1160_/D VGND VPWR sky130_fd_sc_hd__diode_2
XFILLER_80_60 VGND VPWR sky130_fd_sc_hd__fill_1
X_0821_ _0807_/A _0819_/Y _0897_/A _0763_/C _0821_/X VGND VPWR sky130_fd_sc_hd__o22a_4
XFILLER_9_89 VGND VPWR sky130_fd_sc_hd__decap_3
X_0752_ _0743_/Y _0751_/Y _0699_/X _0752_/Y VGND VPWR sky130_fd_sc_hd__a21oi_4
XFILLER_127_120 VGND VPWR sky130_fd_sc_hd__decap_6
X_0683_ _0682_/X _0683_/B _0683_/Y VGND VPWR sky130_fd_sc_hd__nor2_4
XFILLER_89_91 VGND VPWR sky130_fd_sc_hd__fill_1
XFILLER_43_3 VGND VPWR sky130_fd_sc_hd__fill_2
XANTENNA__0529__A _0542_/A VGND VPWR sky130_fd_sc_hd__diode_2
X_1235_ d_fabric_in[7] _0988_/D _1253_/CLK VGND VPWR sky130_fd_sc_hd__dfxtp_4
XANTENNA__0838__B1 _0837_/Y VGND VPWR sky130_fd_sc_hd__diode_2
X_1166_ _0608_/C _0877_/A _1166_/CLK VGND VPWR sky130_fd_sc_hd__dfxtp_4
XFILLER_64_184 VGND VPWR sky130_fd_sc_hd__decap_6
X_1097_ _1136_/A _1097_/B _1102_/C _1097_/D _1097_/Y VGND VPWR sky130_fd_sc_hd__nand4_4
XANTENNA__1267__CLK _1274_/CLK VGND VPWR sky130_fd_sc_hd__diode_2
XANTENNA__1079__B _1077_/Y VGND VPWR sky130_fd_sc_hd__diode_2
XANTENNA__1095__A _1095_/A VGND VPWR sky130_fd_sc_hd__diode_2
XANTENNA__0711__B _0595_/Y VGND VPWR sky130_fd_sc_hd__diode_2
XFILLER_133_178 VGND VPWR sky130_fd_sc_hd__decap_12
XFILLER_125_23 VGND VPWR sky130_fd_sc_hd__decap_8
XANTENNA__1245__D d_fabric_in[17] VGND VPWR sky130_fd_sc_hd__diode_2
XFILLER_85_27 VGND VPWR sky130_fd_sc_hd__fill_2
XFILLER_85_49 VGND VPWR sky130_fd_sc_hd__fill_2
XFILLER_47_107 VGND VPWR sky130_fd_sc_hd__fill_2
XANTENNA__0829__B1 _0828_/Y VGND VPWR sky130_fd_sc_hd__diode_2
XFILLER_18_98 VGND VPWR sky130_fd_sc_hd__fill_2
XPHY_500 VGND VPWR sky130_fd_sc_hd__tapvpwrvgnd_1
XFILLER_34_53 VGND VPWR sky130_fd_sc_hd__fill_2
XPHY_544 VGND VPWR sky130_fd_sc_hd__tapvpwrvgnd_1
XPHY_533 VGND VPWR sky130_fd_sc_hd__tapvpwrvgnd_1
XPHY_522 VGND VPWR sky130_fd_sc_hd__tapvpwrvgnd_1
XPHY_511 VGND VPWR sky130_fd_sc_hd__tapvpwrvgnd_1
XFILLER_34_75 VGND VPWR sky130_fd_sc_hd__fill_2
XPHY_577 VGND VPWR sky130_fd_sc_hd__tapvpwrvgnd_1
XPHY_566 VGND VPWR sky130_fd_sc_hd__tapvpwrvgnd_1
XPHY_555 VGND VPWR sky130_fd_sc_hd__tapvpwrvgnd_1
XPHY_599 VGND VPWR sky130_fd_sc_hd__tapvpwrvgnd_1
XPHY_588 VGND VPWR sky130_fd_sc_hd__tapvpwrvgnd_1
XANTENNA__0902__A _0902_/A VGND VPWR sky130_fd_sc_hd__diode_2
XANTENNA__1006__B1 _0972_/Y VGND VPWR sky130_fd_sc_hd__diode_2
XFILLER_124_123 VGND VPWR sky130_fd_sc_hd__decap_12
XANTENNA__0621__B _0621_/B VGND VPWR sky130_fd_sc_hd__diode_2
XANTENNA__1155__D _0839_/B VGND VPWR sky130_fd_sc_hd__diode_2
XANTENNA__0780__A2 _0779_/Y VGND VPWR sky130_fd_sc_hd__diode_2
Xclkbuf_4_11_0_clk clkbuf_3_5_0_clk/X _1173_/CLK VGND VPWR sky130_fd_sc_hd__clkbuf_1
X_1020_ _1058_/A _1020_/Y VGND VPWR sky130_fd_sc_hd__inv_8
XFILLER_46_184 VGND VPWR sky130_fd_sc_hd__decap_6
XFILLER_61_154 VGND VPWR sky130_fd_sc_hd__fill_1
X_0804_ _0608_/C _0804_/Y VGND VPWR sky130_fd_sc_hd__inv_8
X_0735_ _0667_/B _0520_/X _0729_/B _1174_/D _0736_/A VGND VPWR sky130_fd_sc_hd__nand4_4
XANTENNA__0531__B _0763_/C VGND VPWR sky130_fd_sc_hd__diode_2
X_0666_ _0667_/B _0520_/X _0594_/X _0666_/Y VGND VPWR sky130_fd_sc_hd__nor3_4
XFILLER_130_104 VGND VPWR sky130_fd_sc_hd__fill_1
XANTENNA__1065__D _1097_/D VGND VPWR sky130_fd_sc_hd__diode_2
XANTENNA__0771__A2 _0566_/A VGND VPWR sky130_fd_sc_hd__diode_2
X_0597_ _0588_/C _0597_/B _0635_/A VGND VPWR sky130_fd_sc_hd__nor2_4
XFILLER_130_159 VGND VPWR sky130_fd_sc_hd__decap_12
XFILLER_29_107 VGND VPWR sky130_fd_sc_hd__decap_3
XANTENNA__0781__A1_N _0889_/A VGND VPWR sky130_fd_sc_hd__diode_2
X_1218_ _0902_/A _1218_/Q _1218_/CLK VGND VPWR sky130_fd_sc_hd__dfxtp_4
XFILLER_111_47 VGND VPWR sky130_fd_sc_hd__decap_6
X_1149_ _0802_/A _1149_/Q _1159_/CLK VGND VPWR sky130_fd_sc_hd__dfxtp_4
XFILLER_111_69 VGND VPWR sky130_fd_sc_hd__fill_2
XFILLER_52_176 VGND VPWR sky130_fd_sc_hd__fill_2
XANTENNA__0706__B _0705_/X VGND VPWR sky130_fd_sc_hd__diode_2
XANTENNA__0722__A _0721_/Y VGND VPWR sky130_fd_sc_hd__diode_2
XFILLER_28_184 VGND VPWR sky130_fd_sc_hd__decap_6
XFILLER_43_143 VGND VPWR sky130_fd_sc_hd__fill_2
XFILLER_45_85 VGND VPWR sky130_fd_sc_hd__decap_6
XFILLER_43_165 VGND VPWR sky130_fd_sc_hd__fill_2
XFILLER_43_154 VGND VPWR sky130_fd_sc_hd__fill_2
XANTENNA__0616__B _0587_/A VGND VPWR sky130_fd_sc_hd__diode_2
Xclkbuf_3_0_0_clk clkbuf_3_1_0_clk/A clkbuf_3_0_0_clk/X VGND VPWR sky130_fd_sc_hd__clkbuf_1
XPHY_352 VGND VPWR sky130_fd_sc_hd__tapvpwrvgnd_1
XPHY_341 VGND VPWR sky130_fd_sc_hd__tapvpwrvgnd_1
XPHY_330 VGND VPWR sky130_fd_sc_hd__tapvpwrvgnd_1
XFILLER_101_80 VGND VPWR sky130_fd_sc_hd__decap_4
XFILLER_61_51 VGND VPWR sky130_fd_sc_hd__fill_1
XFILLER_61_40 VGND VPWR sky130_fd_sc_hd__fill_1
XPHY_385 VGND VPWR sky130_fd_sc_hd__tapvpwrvgnd_1
XPHY_374 VGND VPWR sky130_fd_sc_hd__tapvpwrvgnd_1
XPHY_363 VGND VPWR sky130_fd_sc_hd__tapvpwrvgnd_1
XPHY_396 VGND VPWR sky130_fd_sc_hd__tapvpwrvgnd_1
XANTENNA__0632__A _0544_/X VGND VPWR sky130_fd_sc_hd__diode_2
X_0520_ _0588_/B _0520_/X VGND VPWR sky130_fd_sc_hd__buf_1
XFILLER_112_126 VGND VPWR sky130_fd_sc_hd__fill_2
XFILLER_86_92 VGND VPWR sky130_fd_sc_hd__fill_2
X_1003_ _1251_/Q _1000_/X _0958_/X d_sram_in[23] VGND VPWR sky130_fd_sc_hd__a21o_4
XANTENNA__0807__A _0807_/A VGND VPWR sky130_fd_sc_hd__diode_2
XFILLER_34_154 VGND VPWR sky130_fd_sc_hd__fill_2
XFILLER_34_143 VGND VPWR sky130_fd_sc_hd__fill_2
XANTENNA__0542__A _0542_/A VGND VPWR sky130_fd_sc_hd__diode_2
X_0718_ _0718_/A _0544_/X _0550_/X _0624_/B _0719_/D VGND VPWR sky130_fd_sc_hd__and4_4
X_0649_ _0574_/X _0683_/B _0551_/B _0649_/Y VGND VPWR sky130_fd_sc_hd__nand3_4
XFILLER_106_58 VGND VPWR sky130_fd_sc_hd__decap_3
XANTENNA__1092__B _1136_/B VGND VPWR sky130_fd_sc_hd__diode_2
XFILLER_122_57 VGND VPWR sky130_fd_sc_hd__fill_2
XFILLER_25_121 VGND VPWR sky130_fd_sc_hd__decap_6
XANTENNA__0717__A _0612_/A VGND VPWR sky130_fd_sc_hd__diode_2
XFILLER_15_22 VGND VPWR sky130_fd_sc_hd__fill_2
XFILLER_40_135 VGND VPWR sky130_fd_sc_hd__fill_2
XFILLER_15_66 VGND VPWR sky130_fd_sc_hd__decap_3
XFILLER_15_88 VGND VPWR sky130_fd_sc_hd__fill_2
XFILLER_40_179 VGND VPWR sky130_fd_sc_hd__decap_4
XFILLER_31_32 VGND VPWR sky130_fd_sc_hd__decap_6
XFILLER_110_3 VGND VPWR sky130_fd_sc_hd__fill_2
XANTENNA__0983__A2 _0957_/X VGND VPWR sky130_fd_sc_hd__diode_2
XANTENNA__0602__D _0601_/Y VGND VPWR sky130_fd_sc_hd__diode_2
XFILLER_56_62 VGND VPWR sky130_fd_sc_hd__fill_2
XANTENNA__0627__A _0608_/A VGND VPWR sky130_fd_sc_hd__diode_2
XFILLER_16_165 VGND VPWR sky130_fd_sc_hd__fill_2
XFILLER_31_113 VGND VPWR sky130_fd_sc_hd__fill_2
XFILLER_72_72 VGND VPWR sky130_fd_sc_hd__fill_2
XFILLER_31_157 VGND VPWR sky130_fd_sc_hd__fill_2
XFILLER_31_135 VGND VPWR sky130_fd_sc_hd__fill_2
XPHY_160 VGND VPWR sky130_fd_sc_hd__decap_3
XFILLER_82_7 VGND VPWR sky130_fd_sc_hd__fill_2
XPHY_193 VGND VPWR sky130_fd_sc_hd__decap_3
XPHY_182 VGND VPWR sky130_fd_sc_hd__decap_3
XPHY_171 VGND VPWR sky130_fd_sc_hd__decap_3
XANTENNA__0726__A2 _1178_/Q VGND VPWR sky130_fd_sc_hd__diode_2
XFILLER_98_135 VGND VPWR sky130_fd_sc_hd__fill_1
XFILLER_97_80 VGND VPWR sky130_fd_sc_hd__fill_2
XANTENNA__0537__A _0518_/A VGND VPWR sky130_fd_sc_hd__diode_2
XFILLER_22_157 VGND VPWR sky130_fd_sc_hd__fill_2
XANTENNA__0965__A2 _0960_/X VGND VPWR sky130_fd_sc_hd__diode_2
XFILLER_89_157 VGND VPWR sky130_fd_sc_hd__fill_2
XFILLER_133_23 VGND VPWR sky130_fd_sc_hd__fill_2
XANTENNA__1142__A2 _1132_/X VGND VPWR sky130_fd_sc_hd__diode_2
XANTENNA__1253__D d_fabric_in[25] VGND VPWR sky130_fd_sc_hd__diode_2
XFILLER_93_27 VGND VPWR sky130_fd_sc_hd__fill_2
XFILLER_42_53 VGND VPWR sky130_fd_sc_hd__fill_2
XFILLER_42_42 VGND VPWR sky130_fd_sc_hd__decap_8
XANTENNA__0910__A _0922_/B VGND VPWR sky130_fd_sc_hd__diode_2
XANTENNA__1163__D _1195_/Q VGND VPWR sky130_fd_sc_hd__diode_2
XANTENNA__1133__A2 _1095_/Y VGND VPWR sky130_fd_sc_hd__diode_2
XANTENNA__0892__A1 _0874_/X VGND VPWR sky130_fd_sc_hd__diode_2